*SPEF "ieee 1481-1999"
*DESIGN "full_cpu"
*DATE "10:49:07 Sunday June 08, 2025"
*VENDOR "The OpenROAD Project"
*PROGRAM "OpenROAD"
*VERSION "b16bda7e82721d10566ff7e2b68f1ff0be9f9e38"
*DESIGN_FLOW "NAME_SCOPE LOCAL" "PIN_CAP NONE"
*DIVIDER /
*DELIMITER :
*BUS_DELIMITER []
*T_UNIT 1 NS
*C_UNIT 1 PF
*R_UNIT 1 OHM
*L_UNIT 1 HENRY

*NAME_MAP
*3 clk
*4 control
*5 reset_btn
*6 net1
*7 net2
*8 net3
*9 net4
*10 net5
*11 net6
*12 net13
*13 net7
*14 net8
*15 net9
*16 net10
*17 net11
*18 net12
*19 net14
*20 FILLER_0_0_15
*21 FILLER_0_0_27
*22 FILLER_0_0_29
*23 FILLER_0_0_3
*24 FILLER_0_1_15
*25 FILLER_0_1_27
*26 FILLER_0_1_3
*27 FILLER_0_1_35
*28 FILLER_0_2_15
*29 FILLER_0_2_27
*30 FILLER_0_2_29
*31 FILLER_0_2_3
*32 FILLER_0_3_15
*33 FILLER_0_3_27
*34 FILLER_0_3_3
*35 FILLER_0_3_35
*36 FILLER_0_4_21
*37 FILLER_0_4_27
*38 FILLER_0_4_29
*39 FILLER_0_4_9
*40 FILLER_0_5_29
*41 FILLER_0_5_6
*42 PHY_EDGE_ROW_0_Left_6
*43 PHY_EDGE_ROW_0_Right_0
*44 PHY_EDGE_ROW_1_Left_7
*45 PHY_EDGE_ROW_1_Right_1
*46 PHY_EDGE_ROW_2_Left_8
*47 PHY_EDGE_ROW_2_Right_2
*48 PHY_EDGE_ROW_3_Left_9
*49 PHY_EDGE_ROW_3_Right_3
*50 PHY_EDGE_ROW_4_Left_10
*51 PHY_EDGE_ROW_4_Right_4
*52 PHY_EDGE_ROW_5_Left_11
*53 PHY_EDGE_ROW_5_Right_5
*54 TAP_TAPCELL_ROW_0_12
*55 TAP_TAPCELL_ROW_2_13
*56 TAP_TAPCELL_ROW_4_14
*57 TAP_TAPCELL_ROW_5_15
*58 full_cpu_1
*59 full_cpu_10
*60 full_cpu_11
*61 full_cpu_12
*62 full_cpu_13
*63 full_cpu_14
*64 full_cpu_2
*65 full_cpu_3
*66 full_cpu_4
*67 full_cpu_5
*68 full_cpu_6
*69 full_cpu_7
*70 full_cpu_8
*71 full_cpu_9

*PORTS
clk I
control I
reset_btn I
seg_high[0] O
seg_high[1] O
seg_high[2] O
seg_high[3] O
seg_high[4] O
seg_high[5] O
seg_high[6] O
seg_low[0] O
seg_low[1] O
seg_low[2] O
seg_low[3] O
seg_low[4] O
seg_low[5] O
seg_low[6] O

*D_NET *6 0.00175279
*CONN
*P seg_high[0] O
*I *58:LO O *D sky130_fd_sc_hd__conb_1
*CAP
1 seg_high[0] 0.000604153
2 *58:LO 0.000269154
3 *6:8 0.000873308
4 seg_high[0] seg_high[1] 0
5 *6:8 *7:12 6.17437e-06
*RES
1 *58:LO *6:8 42.4329 
2 *6:8 seg_high[0] 13.63 
*END

*D_NET *7 0.00223249
*CONN
*P seg_high[1] O
*I *64:LO O *D sky130_fd_sc_hd__conb_1
*CAP
1 seg_high[1] 0.000530288
2 *64:LO 0.000162457
3 *7:12 0.000692744
4 seg_high[1] seg_high[2] 0.000783356
5 seg_high[1] *8:10 5.74688e-05
6 seg_high[1] *9:8 0
7 seg_high[0] seg_high[1] 0
8 *6:8 *7:12 6.17437e-06
*RES
1 *64:LO *7:12 40.9932 
2 *7:12 seg_high[1] 15.7325 
*END

*D_NET *8 0.00159471
*CONN
*P seg_high[2] O
*I *65:LO O *D sky130_fd_sc_hd__conb_1
*CAP
1 seg_high[2] 0.00027022
2 *65:LO 0.000106721
3 *8:10 0.000376941
4 seg_high[2] *9:8 0
5 *8:10 *9:8 0
6 seg_high[1] seg_high[2] 0.000783356
7 seg_high[1] *8:10 5.74688e-05
*RES
1 *65:LO *8:10 40.3511 
2 *8:10 seg_high[2] 9.9325 
*END

*D_NET *9 0.0011458
*CONN
*P seg_high[3] O
*I *66:LO O *D sky130_fd_sc_hd__conb_1
*CAP
1 seg_high[3] 2.40452e-05
2 *66:LO 0.000389214
3 *9:8 0.00041326
4 *9:8 seg_high[4] 0.000319282
5 *9:8 seg_high[5] 0
6 seg_high[1] *9:8 0
7 seg_high[2] *9:8 0
8 *8:10 *9:8 0
*RES
1 *66:LO *9:8 49.5896 
2 *9:8 seg_high[3] 0.548929 
*END

*D_NET *10 0.00161924
*CONN
*P seg_high[4] O
*I *67:LO O *D sky130_fd_sc_hd__conb_1
*CAP
1 seg_high[4] 0.00019956
2 *67:LO 0.00019956
3 seg_high[4] seg_high[5] 0.000900835
4 *9:8 seg_high[4] 0.000319282
*RES
1 *67:LO seg_high[4] 49.5171 
*END

*D_NET *11 0.00184684
*CONN
*P seg_high[5] O
*I *68:LO O *D sky130_fd_sc_hd__conb_1
*CAP
1 seg_high[5] 0.000409901
2 *68:LO 6.31001e-05
3 *11:8 0.000473001
4 seg_high[5] seg_high[6] 0
5 seg_high[5] *13:8 0
6 seg_high[4] seg_high[5] 0.000900835
7 *9:8 seg_high[5] 0
*RES
1 *68:LO *11:8 39.0979 
2 *11:8 seg_high[5] 13.0914 
*END

*D_NET *12 0.00102862
*CONN
*P seg_high[6] O
*I *62:HI O *D sky130_fd_sc_hd__conb_1
*CAP
1 seg_high[6] 0.000361746
2 *62:HI 0.000361746
3 seg_high[6] *13:8 0.000305125
4 seg_high[5] seg_high[6] 0
*RES
1 *62:HI seg_high[6] 48.8129 
*END

*D_NET *13 0.00119664
*CONN
*P seg_low[0] O
*I *69:LO O *D sky130_fd_sc_hd__conb_1
*CAP
1 seg_low[0] 2.40452e-05
2 *69:LO 0.000261015
3 *13:8 0.00028506
4 *13:8 *14:8 0.00032139
5 seg_high[5] *13:8 0
6 seg_high[6] *13:8 0.000305125
*RES
1 *69:LO *13:8 49.5896 
2 *13:8 seg_low[0] 0.548929 
*END

*D_NET *14 0.00118782
*CONN
*P seg_low[1] O
*I *70:LO O *D sky130_fd_sc_hd__conb_1
*CAP
1 seg_low[1] 4.49146e-05
2 *70:LO 0.000388302
3 *14:8 0.000433217
4 *14:8 *15:8 0
5 *13:8 *14:8 0.00032139
*RES
1 *70:LO *14:8 49.5896 
2 *14:8 seg_low[1] 1.02536 
*END

*D_NET *15 0.00115551
*CONN
*P seg_low[2] O
*I *71:LO O *D sky130_fd_sc_hd__conb_1
*CAP
1 seg_low[2] 2.40452e-05
2 *71:LO 0.00039543
3 *15:8 0.000419475
4 *15:8 seg_low[3] 0.000316564
5 *15:8 seg_low[4] 0
6 *14:8 *15:8 0
*RES
1 *71:LO *15:8 49.5896 
2 *15:8 seg_low[2] 0.548929 
*END

*D_NET *16 0.00111543
*CONN
*P seg_low[3] O
*I *59:LO O *D sky130_fd_sc_hd__conb_1
*CAP
1 seg_low[3] 0.000399431
2 *59:LO 0.000399431
3 seg_low[3] seg_low[4] 0
4 *15:8 seg_low[3] 0.000316564
*RES
1 *59:LO seg_low[3] 49.5171 
*END

*D_NET *17 0.00176005
*CONN
*P seg_low[4] O
*I *60:LO O *D sky130_fd_sc_hd__conb_1
*CAP
1 seg_low[4] 0.000530451
2 *60:LO 9.70647e-05
3 *17:8 0.000627516
4 seg_low[4] seg_low[5] 0.000358197
5 *17:8 *18:8 0.000146822
6 seg_low[3] seg_low[4] 0
7 *15:8 seg_low[4] 0
*RES
1 *60:LO *17:8 39.5743 
2 *17:8 seg_low[4] 14.2514 
*END

*D_NET *18 0.00191101
*CONN
*P seg_low[5] O
*I *61:LO O *D sky130_fd_sc_hd__conb_1
*CAP
1 seg_low[5] 0.000495887
2 *61:LO 0.000207108
3 *18:8 0.000702995
4 seg_low[5] seg_low[6] 0
5 *18:8 *19:8 0
6 seg_low[4] seg_low[5] 0.000358197
7 *17:8 *18:8 0.000146822
*RES
1 *61:LO *18:8 42.4329 
2 *18:8 seg_low[5] 13.9821 
*END

*D_NET *19 0.00232067
*CONN
*P seg_low[6] O
*I *63:HI O *D sky130_fd_sc_hd__conb_1
*CAP
1 seg_low[6] 0.000480128
2 *63:HI 0.000680207
3 *19:8 0.00116034
4 seg_low[5] seg_low[6] 0
5 *18:8 *19:8 0
*RES
1 *63:HI *19:8 47.1971 
2 *19:8 seg_low[6] 10.8129 
*END
