* NGSPICE file created from semi_cpu_top.ext - technology: sky130A

* Black-box entry subcircuit for sky130_ef_sc_hd__decap_12 abstract view
.subckt sky130_ef_sc_hd__decap_12 VPWR VGND VPB VNB
.ends

* Black-box entry subcircuit for sky130_fd_sc_hd__o21a_1 abstract view
.subckt sky130_fd_sc_hd__o21a_1 A1 A2 B1 VGND VNB VPB VPWR X
.ends

* Black-box entry subcircuit for sky130_fd_sc_hd__mux2_1 abstract view
.subckt sky130_fd_sc_hd__mux2_1 A0 A1 S VGND VNB VPB VPWR X
.ends

* Black-box entry subcircuit for sky130_fd_sc_hd__decap_6 abstract view
.subckt sky130_fd_sc_hd__decap_6 VGND VNB VPB VPWR
.ends

* Black-box entry subcircuit for sky130_fd_sc_hd__tapvpwrvgnd_1 abstract view
.subckt sky130_fd_sc_hd__tapvpwrvgnd_1 VGND VPWR
.ends

* Black-box entry subcircuit for sky130_fd_sc_hd__fill_1 abstract view
.subckt sky130_fd_sc_hd__fill_1 VGND VNB VPB VPWR
.ends

* Black-box entry subcircuit for sky130_fd_sc_hd__diode_2 abstract view
.subckt sky130_fd_sc_hd__diode_2 DIODE VGND VNB VPB VPWR
.ends

* Black-box entry subcircuit for sky130_fd_sc_hd__dlygate4sd1_1 abstract view
.subckt sky130_fd_sc_hd__dlygate4sd1_1 A VGND VNB VPB VPWR X
.ends

* Black-box entry subcircuit for sky130_fd_sc_hd__fill_2 abstract view
.subckt sky130_fd_sc_hd__fill_2 VGND VNB VPB VPWR
.ends

* Black-box entry subcircuit for sky130_fd_sc_hd__decap_4 abstract view
.subckt sky130_fd_sc_hd__decap_4 VGND VNB VPB VPWR
.ends

* Black-box entry subcircuit for sky130_fd_sc_hd__dfrtp_1 abstract view
.subckt sky130_fd_sc_hd__dfrtp_1 CLK D RESET_B VGND VNB VPB VPWR Q
.ends

* Black-box entry subcircuit for sky130_fd_sc_hd__dfxtp_1 abstract view
.subckt sky130_fd_sc_hd__dfxtp_1 CLK D VGND VNB VPB VPWR Q
.ends

* Black-box entry subcircuit for sky130_fd_sc_hd__and2_1 abstract view
.subckt sky130_fd_sc_hd__and2_1 A B VGND VNB VPB VPWR X
.ends

* Black-box entry subcircuit for sky130_fd_sc_hd__inv_2 abstract view
.subckt sky130_fd_sc_hd__inv_2 A VGND VNB VPB VPWR Y
.ends

* Black-box entry subcircuit for sky130_fd_sc_hd__clkbuf_2 abstract view
.subckt sky130_fd_sc_hd__clkbuf_2 A VGND VNB VPB VPWR X
.ends

* Black-box entry subcircuit for sky130_fd_sc_hd__clkbuf_1 abstract view
.subckt sky130_fd_sc_hd__clkbuf_1 A VGND VNB VPB VPWR X
.ends

* Black-box entry subcircuit for sky130_fd_sc_hd__decap_3 abstract view
.subckt sky130_fd_sc_hd__decap_3 VGND VNB VPB VPWR
.ends

* Black-box entry subcircuit for sky130_fd_sc_hd__a32o_1 abstract view
.subckt sky130_fd_sc_hd__a32o_1 A1 A2 A3 B1 B2 VGND VNB VPB VPWR X
.ends

* Black-box entry subcircuit for sky130_fd_sc_hd__clkbuf_8 abstract view
.subckt sky130_fd_sc_hd__clkbuf_8 A VGND VNB VPB VPWR X
.ends

* Black-box entry subcircuit for sky130_fd_sc_hd__nand2_1 abstract view
.subckt sky130_fd_sc_hd__nand2_1 A B VGND VNB VPB VPWR Y
.ends

* Black-box entry subcircuit for sky130_fd_sc_hd__nor2_1 abstract view
.subckt sky130_fd_sc_hd__nor2_1 A B VGND VNB VPB VPWR Y
.ends

* Black-box entry subcircuit for sky130_fd_sc_hd__and3_1 abstract view
.subckt sky130_fd_sc_hd__and3_1 A B C VGND VNB VPB VPWR X
.ends

* Black-box entry subcircuit for sky130_fd_sc_hd__a22o_1 abstract view
.subckt sky130_fd_sc_hd__a22o_1 A1 A2 B1 B2 VGND VNB VPB VPWR X
.ends

* Black-box entry subcircuit for sky130_fd_sc_hd__buf_2 abstract view
.subckt sky130_fd_sc_hd__buf_2 A VGND VNB VPB VPWR X
.ends

* Black-box entry subcircuit for sky130_fd_sc_hd__o21ai_1 abstract view
.subckt sky130_fd_sc_hd__o21ai_1 A1 A2 B1 VGND VNB VPB VPWR Y
.ends

* Black-box entry subcircuit for sky130_fd_sc_hd__dlygate4sd3_1 abstract view
.subckt sky130_fd_sc_hd__dlygate4sd3_1 A VGND VNB VPB VPWR X
.ends

* Black-box entry subcircuit for sky130_fd_sc_hd__decap_8 abstract view
.subckt sky130_fd_sc_hd__decap_8 VGND VNB VPB VPWR
.ends

* Black-box entry subcircuit for sky130_fd_sc_hd__a22oi_4 abstract view
.subckt sky130_fd_sc_hd__a22oi_4 A1 A2 B1 B2 VGND VNB VPB VPWR Y
.ends

* Black-box entry subcircuit for sky130_fd_sc_hd__or2b_1 abstract view
.subckt sky130_fd_sc_hd__or2b_1 A B_N VGND VNB VPB VPWR X
.ends

* Black-box entry subcircuit for sky130_fd_sc_hd__or2_1 abstract view
.subckt sky130_fd_sc_hd__or2_1 A B VGND VNB VPB VPWR X
.ends

* Black-box entry subcircuit for sky130_fd_sc_hd__buf_4 abstract view
.subckt sky130_fd_sc_hd__buf_4 A VGND VNB VPB VPWR X
.ends

* Black-box entry subcircuit for sky130_fd_sc_hd__and2b_1 abstract view
.subckt sky130_fd_sc_hd__and2b_1 A_N B VGND VNB VPB VPWR X
.ends

* Black-box entry subcircuit for sky130_fd_sc_hd__xnor2_1 abstract view
.subckt sky130_fd_sc_hd__xnor2_1 A B VGND VNB VPB VPWR Y
.ends

* Black-box entry subcircuit for sky130_fd_sc_hd__mux4_2 abstract view
.subckt sky130_fd_sc_hd__mux4_2 A0 A1 A2 A3 S0 S1 VGND VNB VPB VPWR X
.ends

* Black-box entry subcircuit for sky130_fd_sc_hd__o2bb2a_1 abstract view
.subckt sky130_fd_sc_hd__o2bb2a_1 A1_N A2_N B1 B2 VGND VNB VPB VPWR X
.ends

* Black-box entry subcircuit for sky130_fd_sc_hd__a21o_1 abstract view
.subckt sky130_fd_sc_hd__a21o_1 A1 A2 B1 VGND VNB VPB VPWR X
.ends

* Black-box entry subcircuit for sky130_fd_sc_hd__o21ai_2 abstract view
.subckt sky130_fd_sc_hd__o21ai_2 A1 A2 B1 VGND VNB VPB VPWR Y
.ends

* Black-box entry subcircuit for sky130_fd_sc_hd__clkbuf_4 abstract view
.subckt sky130_fd_sc_hd__clkbuf_4 A VGND VNB VPB VPWR X
.ends

* Black-box entry subcircuit for sky130_fd_sc_hd__a21oi_1 abstract view
.subckt sky130_fd_sc_hd__a21oi_1 A1 A2 B1 VGND VNB VPB VPWR Y
.ends

* Black-box entry subcircuit for sky130_fd_sc_hd__xor2_1 abstract view
.subckt sky130_fd_sc_hd__xor2_1 A B VGND VNB VPB VPWR X
.ends

* Black-box entry subcircuit for sky130_fd_sc_hd__buf_1 abstract view
.subckt sky130_fd_sc_hd__buf_1 A VGND VNB VPB VPWR X
.ends

* Black-box entry subcircuit for sky130_fd_sc_hd__a31o_1 abstract view
.subckt sky130_fd_sc_hd__a31o_1 A1 A2 A3 B1 VGND VNB VPB VPWR X
.ends

* Black-box entry subcircuit for sky130_fd_sc_hd__a211o_1 abstract view
.subckt sky130_fd_sc_hd__a211o_1 A1 A2 B1 C1 VGND VNB VPB VPWR X
.ends

* Black-box entry subcircuit for sky130_fd_sc_hd__a2bb2o_1 abstract view
.subckt sky130_fd_sc_hd__a2bb2o_1 A1_N A2_N B1 B2 VGND VNB VPB VPWR X
.ends

* Black-box entry subcircuit for sky130_fd_sc_hd__o31ai_4 abstract view
.subckt sky130_fd_sc_hd__o31ai_4 A1 A2 A3 B1 VGND VNB VPB VPWR Y
.ends

* Black-box entry subcircuit for sky130_fd_sc_hd__or3b_1 abstract view
.subckt sky130_fd_sc_hd__or3b_1 A B C_N VGND VNB VPB VPWR X
.ends

* Black-box entry subcircuit for sky130_fd_sc_hd__a21oi_4 abstract view
.subckt sky130_fd_sc_hd__a21oi_4 A1 A2 B1 VGND VNB VPB VPWR Y
.ends

* Black-box entry subcircuit for sky130_fd_sc_hd__o22a_1 abstract view
.subckt sky130_fd_sc_hd__o22a_1 A1 A2 B1 B2 VGND VNB VPB VPWR X
.ends

* Black-box entry subcircuit for sky130_fd_sc_hd__or3_1 abstract view
.subckt sky130_fd_sc_hd__or3_1 A B C VGND VNB VPB VPWR X
.ends

* Black-box entry subcircuit for sky130_fd_sc_hd__o21ba_1 abstract view
.subckt sky130_fd_sc_hd__o21ba_1 A1 A2 B1_N VGND VNB VPB VPWR X
.ends

* Black-box entry subcircuit for sky130_fd_sc_hd__a21oi_2 abstract view
.subckt sky130_fd_sc_hd__a21oi_2 A1 A2 B1 VGND VNB VPB VPWR Y
.ends

* Black-box entry subcircuit for sky130_fd_sc_hd__clkinv_2 abstract view
.subckt sky130_fd_sc_hd__clkinv_2 A VGND VNB VPB VPWR Y
.ends

* Black-box entry subcircuit for sky130_fd_sc_hd__or4_1 abstract view
.subckt sky130_fd_sc_hd__or4_1 A B C D VGND VNB VPB VPWR X
.ends

* Black-box entry subcircuit for sky130_fd_sc_hd__o211a_1 abstract view
.subckt sky130_fd_sc_hd__o211a_1 A1 A2 B1 C1 VGND VNB VPB VPWR X
.ends

* Black-box entry subcircuit for sky130_fd_sc_hd__a22o_2 abstract view
.subckt sky130_fd_sc_hd__a22o_2 A1 A2 B1 B2 VGND VNB VPB VPWR X
.ends

* Black-box entry subcircuit for sky130_fd_sc_hd__mux2_2 abstract view
.subckt sky130_fd_sc_hd__mux2_2 A0 A1 S VGND VNB VPB VPWR X
.ends

* Black-box entry subcircuit for sky130_fd_sc_hd__o22ai_4 abstract view
.subckt sky130_fd_sc_hd__o22ai_4 A1 A2 B1 B2 VGND VNB VPB VPWR Y
.ends

* Black-box entry subcircuit for sky130_fd_sc_hd__a21boi_1 abstract view
.subckt sky130_fd_sc_hd__a21boi_1 A1 A2 B1_N VGND VNB VPB VPWR Y
.ends

* Black-box entry subcircuit for sky130_fd_sc_hd__or4_2 abstract view
.subckt sky130_fd_sc_hd__or4_2 A B C D VGND VNB VPB VPWR X
.ends

* Black-box entry subcircuit for sky130_fd_sc_hd__buf_8 abstract view
.subckt sky130_fd_sc_hd__buf_8 A VGND VNB VPB VPWR X
.ends

* Black-box entry subcircuit for sky130_fd_sc_hd__inv_6 abstract view
.subckt sky130_fd_sc_hd__inv_6 A VGND VNB VPB VPWR Y
.ends

* Black-box entry subcircuit for sky130_fd_sc_hd__o311a_1 abstract view
.subckt sky130_fd_sc_hd__o311a_1 A1 A2 A3 B1 C1 VGND VNB VPB VPWR X
.ends

* Black-box entry subcircuit for sky130_fd_sc_hd__or4_4 abstract view
.subckt sky130_fd_sc_hd__or4_4 A B C D VGND VNB VPB VPWR X
.ends

* Black-box entry subcircuit for sky130_fd_sc_hd__o22ai_1 abstract view
.subckt sky130_fd_sc_hd__o22ai_1 A1 A2 B1 B2 VGND VNB VPB VPWR Y
.ends

* Black-box entry subcircuit for sky130_fd_sc_hd__and3b_1 abstract view
.subckt sky130_fd_sc_hd__and3b_1 A_N B C VGND VNB VPB VPWR X
.ends

* Black-box entry subcircuit for sky130_fd_sc_hd__clkinv_4 abstract view
.subckt sky130_fd_sc_hd__clkinv_4 A VGND VNB VPB VPWR Y
.ends

* Black-box entry subcircuit for sky130_fd_sc_hd__a2bb2o_2 abstract view
.subckt sky130_fd_sc_hd__a2bb2o_2 A1_N A2_N B1 B2 VGND VNB VPB VPWR X
.ends

* Black-box entry subcircuit for sky130_fd_sc_hd__o22ai_2 abstract view
.subckt sky130_fd_sc_hd__o22ai_2 A1 A2 B1 B2 VGND VNB VPB VPWR Y
.ends

* Black-box entry subcircuit for sky130_fd_sc_hd__a311oi_2 abstract view
.subckt sky130_fd_sc_hd__a311oi_2 A1 A2 A3 B1 C1 VGND VNB VPB VPWR Y
.ends

* Black-box entry subcircuit for sky130_fd_sc_hd__clkbuf_16 abstract view
.subckt sky130_fd_sc_hd__clkbuf_16 A VGND VNB VPB VPWR X
.ends

* Black-box entry subcircuit for sky130_fd_sc_hd__inv_8 abstract view
.subckt sky130_fd_sc_hd__inv_8 A VGND VNB VPB VPWR Y
.ends

* Black-box entry subcircuit for sky130_fd_sc_hd__nor2_4 abstract view
.subckt sky130_fd_sc_hd__nor2_4 A B VGND VNB VPB VPWR Y
.ends

* Black-box entry subcircuit for sky130_fd_sc_hd__clkinvlp_4 abstract view
.subckt sky130_fd_sc_hd__clkinvlp_4 A VGND VNB VPB VPWR Y
.ends

* Black-box entry subcircuit for sky130_fd_sc_hd__dfrtp_4 abstract view
.subckt sky130_fd_sc_hd__dfrtp_4 CLK D RESET_B VGND VNB VPB VPWR Q
.ends

* Black-box entry subcircuit for sky130_fd_sc_hd__o21bai_1 abstract view
.subckt sky130_fd_sc_hd__o21bai_1 A1 A2 B1_N VGND VNB VPB VPWR Y
.ends

* Black-box entry subcircuit for sky130_fd_sc_hd__or2_4 abstract view
.subckt sky130_fd_sc_hd__or2_4 A B VGND VNB VPB VPWR X
.ends

* Black-box entry subcircuit for sky130_fd_sc_hd__o31a_1 abstract view
.subckt sky130_fd_sc_hd__o31a_1 A1 A2 A3 B1 VGND VNB VPB VPWR X
.ends

* Black-box entry subcircuit for sky130_fd_sc_hd__and2_2 abstract view
.subckt sky130_fd_sc_hd__and2_2 A B VGND VNB VPB VPWR X
.ends

* Black-box entry subcircuit for sky130_fd_sc_hd__dlymetal6s2s_1 abstract view
.subckt sky130_fd_sc_hd__dlymetal6s2s_1 A VGND VNB VPB VPWR X
.ends

* Black-box entry subcircuit for sky130_fd_sc_hd__or3_4 abstract view
.subckt sky130_fd_sc_hd__or3_4 A B C VGND VNB VPB VPWR X
.ends

* Black-box entry subcircuit for sky130_fd_sc_hd__o31ai_1 abstract view
.subckt sky130_fd_sc_hd__o31ai_1 A1 A2 A3 B1 VGND VNB VPB VPWR Y
.ends

* Black-box entry subcircuit for sky130_fd_sc_hd__o32ai_4 abstract view
.subckt sky130_fd_sc_hd__o32ai_4 A1 A2 A3 B1 B2 VGND VNB VPB VPWR Y
.ends

* Black-box entry subcircuit for sky130_fd_sc_hd__a21bo_1 abstract view
.subckt sky130_fd_sc_hd__a21bo_1 A1 A2 B1_N VGND VNB VPB VPWR X
.ends

* Black-box entry subcircuit for sky130_fd_sc_hd__and4_1 abstract view
.subckt sky130_fd_sc_hd__and4_1 A B C D VGND VNB VPB VPWR X
.ends

* Black-box entry subcircuit for sky130_fd_sc_hd__nand2_2 abstract view
.subckt sky130_fd_sc_hd__nand2_2 A B VGND VNB VPB VPWR Y
.ends

* Black-box entry subcircuit for sky130_fd_sc_hd__inv_12 abstract view
.subckt sky130_fd_sc_hd__inv_12 A VGND VNB VPB VPWR Y
.ends

* Black-box entry subcircuit for sky130_fd_sc_hd__buf_6 abstract view
.subckt sky130_fd_sc_hd__buf_6 A VGND VNB VPB VPWR X
.ends

* Black-box entry subcircuit for sky130_fd_sc_hd__a311o_1 abstract view
.subckt sky130_fd_sc_hd__a311o_1 A1 A2 A3 B1 C1 VGND VNB VPB VPWR X
.ends

* Black-box entry subcircuit for sky130_fd_sc_hd__o221a_1 abstract view
.subckt sky130_fd_sc_hd__o221a_1 A1 A2 B1 B2 C1 VGND VNB VPB VPWR X
.ends

* Black-box entry subcircuit for sky130_fd_sc_hd__a22o_4 abstract view
.subckt sky130_fd_sc_hd__a22o_4 A1 A2 B1 B2 VGND VNB VPB VPWR X
.ends

* Black-box entry subcircuit for sky130_fd_sc_hd__nor2_2 abstract view
.subckt sky130_fd_sc_hd__nor2_2 A B VGND VNB VPB VPWR Y
.ends

* Black-box entry subcircuit for sky130_fd_sc_hd__nor3_1 abstract view
.subckt sky130_fd_sc_hd__nor3_1 A B C VGND VNB VPB VPWR Y
.ends

* Black-box entry subcircuit for sky130_fd_sc_hd__or4b_4 abstract view
.subckt sky130_fd_sc_hd__or4b_4 A B C D_N VGND VNB VPB VPWR X
.ends

* Black-box entry subcircuit for sky130_fd_sc_hd__conb_1 abstract view
.subckt sky130_fd_sc_hd__conb_1 VGND VNB VPB VPWR HI LO
.ends

* Black-box entry subcircuit for sky130_fd_sc_hd__o31ai_2 abstract view
.subckt sky130_fd_sc_hd__o31ai_2 A1 A2 A3 B1 VGND VNB VPB VPWR Y
.ends

* Black-box entry subcircuit for sky130_fd_sc_hd__or2_2 abstract view
.subckt sky130_fd_sc_hd__or2_2 A B VGND VNB VPB VPWR X
.ends

* Black-box entry subcircuit for sky130_fd_sc_hd__o41a_1 abstract view
.subckt sky130_fd_sc_hd__o41a_1 A1 A2 A3 A4 B1 VGND VNB VPB VPWR X
.ends

* Black-box entry subcircuit for sky130_fd_sc_hd__nor3_2 abstract view
.subckt sky130_fd_sc_hd__nor3_2 A B C VGND VNB VPB VPWR Y
.ends

* Black-box entry subcircuit for sky130_fd_sc_hd__o32a_1 abstract view
.subckt sky130_fd_sc_hd__o32a_1 A1 A2 A3 B1 B2 VGND VNB VPB VPWR X
.ends

* Black-box entry subcircuit for sky130_fd_sc_hd__or3_2 abstract view
.subckt sky130_fd_sc_hd__or3_2 A B C VGND VNB VPB VPWR X
.ends

* Black-box entry subcircuit for sky130_fd_sc_hd__a221o_1 abstract view
.subckt sky130_fd_sc_hd__a221o_1 A1 A2 B1 B2 C1 VGND VNB VPB VPWR X
.ends

* Black-box entry subcircuit for sky130_fd_sc_hd__a211oi_1 abstract view
.subckt sky130_fd_sc_hd__a211oi_1 A1 A2 B1 C1 VGND VNB VPB VPWR Y
.ends

* Black-box entry subcircuit for sky130_fd_sc_hd__and4bb_1 abstract view
.subckt sky130_fd_sc_hd__and4bb_1 A_N B_N C D VGND VNB VPB VPWR X
.ends

* Black-box entry subcircuit for sky130_fd_sc_hd__mux4_1 abstract view
.subckt sky130_fd_sc_hd__mux4_1 A0 A1 A2 A3 S0 S1 VGND VNB VPB VPWR X
.ends

* Black-box entry subcircuit for sky130_fd_sc_hd__or4bb_1 abstract view
.subckt sky130_fd_sc_hd__or4bb_1 A B C_N D_N VGND VNB VPB VPWR X
.ends

* Black-box entry subcircuit for sky130_fd_sc_hd__dfrtp_2 abstract view
.subckt sky130_fd_sc_hd__dfrtp_2 CLK D RESET_B VGND VNB VPB VPWR Q
.ends

* Black-box entry subcircuit for sky130_fd_sc_hd__nand2_4 abstract view
.subckt sky130_fd_sc_hd__nand2_4 A B VGND VNB VPB VPWR Y
.ends

* Black-box entry subcircuit for sky130_fd_sc_hd__dfxtp_2 abstract view
.subckt sky130_fd_sc_hd__dfxtp_2 CLK D VGND VNB VPB VPWR Q
.ends

* Black-box entry subcircuit for sky130_fd_sc_hd__dfxtp_4 abstract view
.subckt sky130_fd_sc_hd__dfxtp_4 CLK D VGND VNB VPB VPWR Q
.ends

* Black-box entry subcircuit for sky130_fd_sc_hd__nand3_1 abstract view
.subckt sky130_fd_sc_hd__nand3_1 A B C VGND VNB VPB VPWR Y
.ends

* Black-box entry subcircuit for sky130_fd_sc_hd__o22a_2 abstract view
.subckt sky130_fd_sc_hd__o22a_2 A1 A2 B1 B2 VGND VNB VPB VPWR X
.ends

.subckt semi_cpu_top Result[0] Result[10] Result[11] Result[12] Result[13] Result[14]
+ Result[15] Result[16] Result[17] Result[18] Result[19] Result[1] Result[20] Result[21]
+ Result[22] Result[23] Result[24] Result[25] Result[26] Result[27] Result[28] Result[29]
+ Result[2] Result[30] Result[31] Result[3] Result[4] Result[5] Result[6] Result[7]
+ Result[8] Result[9] VGND VPWR alu_op_tb[0] alu_op_tb[1] alu_op_tb[2] an[0] an[1]
+ an[2] an[3] clk control immediate_tb[0] immediate_tb[10] immediate_tb[12] immediate_tb[13]
+ immediate_tb[14] immediate_tb[15] immediate_tb[16] immediate_tb[17] immediate_tb[18]
+ immediate_tb[19] immediate_tb[1] immediate_tb[20] immediate_tb[21] immediate_tb[22]
+ immediate_tb[23] immediate_tb[24] immediate_tb[25] immediate_tb[26] immediate_tb[2]
+ immediate_tb[30] immediate_tb[31] immediate_tb[3] immediate_tb[4] immediate_tb[5]
+ immediate_tb[6] immediate_tb[7] immediate_tb[8] immediate_tb[9] instruction_tb[0]
+ instruction_tb[10] instruction_tb[11] instruction_tb[12] instruction_tb[13] instruction_tb[14]
+ instruction_tb[15] instruction_tb[16] instruction_tb[17] instruction_tb[18] instruction_tb[19]
+ instruction_tb[1] instruction_tb[20] instruction_tb[21] instruction_tb[22] instruction_tb[23]
+ instruction_tb[24] instruction_tb[25] instruction_tb[26] instruction_tb[27] instruction_tb[28]
+ instruction_tb[29] instruction_tb[2] instruction_tb[30] instruction_tb[31] instruction_tb[3]
+ pc_out_tb[0] pc_out_tb[1] pc_out_tb[2] rd1_tb[0] rd1_tb[10] rd1_tb[11] rd1_tb[12]
+ rd1_tb[13] rd1_tb[14] rd1_tb[15] rd1_tb[16] rd1_tb[17] rd1_tb[18] rd1_tb[19] rd1_tb[1]
+ rd1_tb[20] rd1_tb[21] rd1_tb[22] rd1_tb[23] rd1_tb[24] rd1_tb[25] rd1_tb[26] rd1_tb[27]
+ rd1_tb[28] rd1_tb[29] rd1_tb[2] rd1_tb[30] rd1_tb[31] rd1_tb[3] rd1_tb[4] rd1_tb[5]
+ rd1_tb[6] rd1_tb[7] rd1_tb[8] rd1_tb[9] rd2_tb[0] rd2_tb[10] rd2_tb[11] rd2_tb[12]
+ rd2_tb[13] rd2_tb[14] rd2_tb[15] rd2_tb[16] rd2_tb[17] rd2_tb[18] rd2_tb[19] rd2_tb[1]
+ rd2_tb[20] rd2_tb[21] rd2_tb[22] rd2_tb[23] rd2_tb[24] rd2_tb[25] rd2_tb[26] rd2_tb[27]
+ rd2_tb[28] rd2_tb[29] rd2_tb[2] rd2_tb[30] rd2_tb[31] rd2_tb[3] rd2_tb[4] rd2_tb[5]
+ rd2_tb[6] rd2_tb[7] rd2_tb[8] rd2_tb[9] rst seg[0] seg[1] seg[2] seg[3] seg[4] seg[5]
+ seg[6] instruction_tb[6] instruction_tb[5] instruction_tb[4] immediate_tb[29] immediate_tb[28]
+ immediate_tb[27] instruction_tb[9] immediate_tb[11] instruction_tb[8] instruction_tb[7]
XFILLER_0_27_93 VPWR VGND VPWR VGND sky130_ef_sc_hd__decap_12
X_2106_ _0683_ _0702_ _0733_ VGND VGND VPWR VPWR _1005_ sky130_fd_sc_hd__o21a_1
X_2037_ _0879_ _0882_ _0806_ VGND VGND VPWR VPWR _0942_ sky130_fd_sc_hd__mux2_1
XFILLER_0_76_133 VGND VGND VPWR VPWR sky130_fd_sc_hd__decap_6
XTAP_TAPCELL_ROW_65_776 VGND VPWR sky130_fd_sc_hd__tapvpwrvgnd_1
XFILLER_0_76_177 VPWR VGND VPWR VGND sky130_ef_sc_hd__decap_12
XFILLER_0_43_81 VPWR VGND VPWR VGND sky130_ef_sc_hd__decap_12
XFILLER_0_57_391 VGND VGND VPWR VPWR sky130_fd_sc_hd__fill_1
XFILLER_0_60_501 VPWR VGND VPWR VGND sky130_ef_sc_hd__decap_12
XTAP_TAPCELL_ROW_20_367 VGND VPWR sky130_fd_sc_hd__tapvpwrvgnd_1
XFILLER_0_13_461 VGND VGND VPWR VPWR sky130_fd_sc_hd__decap_6
XFILLER_0_7_81 VPWR VGND VPWR VGND sky130_ef_sc_hd__decap_12
XANTENNA__2365__A _1187_ VGND VGND VPWR VPWR sky130_fd_sc_hd__diode_2
XTAP_TAPCELL_ROW_28_445 VGND VPWR sky130_fd_sc_hd__tapvpwrvgnd_1
XFILLER_0_67_111 VGND VGND VPWR VPWR sky130_fd_sc_hd__fill_1
XFILLER_0_55_317 VPWR VGND VPWR VGND sky130_ef_sc_hd__decap_12
XFILLER_0_70_309 VPWR VGND VPWR VGND sky130_ef_sc_hd__decap_12
XFILLER_0_63_361 VPWR VGND VPWR VGND sky130_ef_sc_hd__decap_12
XANTENNA__1748__A2 net140 VGND VGND VPWR VPWR sky130_fd_sc_hd__diode_2
Xrebuffer7 _0519_ VGND VGND VPWR VPWR net189 sky130_fd_sc_hd__dlygate4sd1_1
XFILLER_0_11_409 VGND VGND VPWR VPWR sky130_fd_sc_hd__fill_2
XFILLER_0_48_15 VPWR VGND VPWR VGND sky130_ef_sc_hd__decap_12
XFILLER_0_3_39 VPWR VGND VPWR VGND sky130_ef_sc_hd__decap_12
XFILLER_0_58_133 VGND VGND VPWR VPWR sky130_fd_sc_hd__decap_6
XTAP_TAPCELL_ROW_62_746 VGND VPWR sky130_fd_sc_hd__tapvpwrvgnd_1
XFILLER_0_86_497 VGND VGND VPWR VPWR sky130_fd_sc_hd__fill_1
XFILLER_0_73_125 VPWR VGND VPWR VGND sky130_ef_sc_hd__decap_12
XFILLER_0_13_51 VGND VGND VPWR VPWR sky130_fd_sc_hd__decap_4
XFILLER_0_58_177 VPWR VGND VPWR VGND sky130_ef_sc_hd__decap_12
XFILLER_0_73_169 VPWR VGND VPWR VGND sky130_ef_sc_hd__decap_12
XFILLER_0_6_414 VGND VGND VPWR VPWR sky130_fd_sc_hd__fill_2
XFILLER_0_6_469 VGND VGND VPWR VPWR sky130_fd_sc_hd__decap_6
X_2724_ clknet_4_13_0_clk _0302_ _0118_ VGND VGND VPWR VPWR rf.registers\[25\]\[29\]
+ sky130_fd_sc_hd__dfrtp_1
X_2655_ clknet_4_11_0_clk _0233_ VGND VGND VPWR VPWR ssdc.clk_divider\[12\] sky130_fd_sc_hd__dfxtp_1
X_1606_ _0547_ _0549_ VGND VGND VPWR VPWR _0551_ sky130_fd_sc_hd__and2_1
X_2586_ _1266_ VGND VGND VPWR VPWR _0011_ sky130_fd_sc_hd__inv_2
X_1537_ _0499_ VGND VGND VPWR VPWR net112 sky130_fd_sc_hd__clkbuf_2
X_1468_ _0457_ VGND VGND VPWR VPWR _0319_ sky130_fd_sc_hd__clkbuf_1
X_1399_ net334 _0415_ VGND VGND VPWR VPWR _0422_ sky130_fd_sc_hd__and2_1
XTAP_TAPCELL_ROW_78_890 VGND VPWR sky130_fd_sc_hd__tapvpwrvgnd_1
XTAP_TAPCELL_ROW_25_415 VGND VPWR sky130_fd_sc_hd__tapvpwrvgnd_1
XFILLER_0_49_111 VGND VGND VPWR VPWR sky130_fd_sc_hd__fill_1
XFILLER_0_77_497 VGND VGND VPWR VPWR sky130_fd_sc_hd__decap_6
XFILLER_0_9_252 VGND VGND VPWR VPWR sky130_fd_sc_hd__decap_6
XFILLER_0_52_309 VPWR VGND VPWR VGND sky130_ef_sc_hd__decap_12
XTAP_TAPCELL_ROW_33_492 VGND VPWR sky130_fd_sc_hd__tapvpwrvgnd_1
XFILLER_0_20_206 VGND VGND VPWR VPWR sky130_fd_sc_hd__fill_1
XPHY_EDGE_ROW_0_Left_89 VGND VGND VPWR VPWR sky130_fd_sc_hd__decap_3
XFILLER_0_18_29 VPWR VGND VPWR VGND sky130_ef_sc_hd__decap_12
XFILLER_0_87_217 VGND VGND VPWR VPWR sky130_fd_sc_hd__decap_6
XANTENNA__1711__B net70 VGND VGND VPWR VPWR sky130_fd_sc_hd__diode_2
XANTENNA__2672__CLK clknet_4_7_0_clk VGND VGND VPWR VPWR sky130_fd_sc_hd__diode_2
XFILLER_0_68_475 VGND VGND VPWR VPWR sky130_fd_sc_hd__fill_1
XANTENNA__2091__A1 _0787_ VGND VGND VPWR VPWR sky130_fd_sc_hd__diode_2
XFILLER_0_55_125 VPWR VGND VPWR VGND sky130_ef_sc_hd__decap_12
XFILLER_0_83_445 VGND VGND VPWR VPWR sky130_fd_sc_hd__decap_3
XFILLER_0_50_27 VGND VGND VPWR VPWR sky130_fd_sc_hd__fill_1
XFILLER_0_55_169 VPWR VGND VPWR VGND sky130_ef_sc_hd__decap_12
XFILLER_0_70_139 VGND VGND VPWR VPWR sky130_fd_sc_hd__fill_1
XFILLER_0_3_406 VGND VGND VPWR VPWR sky130_fd_sc_hd__fill_2
XFILLER_0_3_417 VGND VGND VPWR VPWR sky130_fd_sc_hd__fill_2
X_2440_ _1242_ VGND VGND VPWR VPWR _1243_ sky130_fd_sc_hd__inv_2
XFILLER_0_59_69 VPWR VGND VPWR VGND sky130_ef_sc_hd__decap_12
X_2371_ _1194_ _1184_ _1196_ _1197_ _1191_ VGND VGND VPWR VPWR net133 sky130_fd_sc_hd__a32o_1
X_1322_ _0377_ VGND VGND VPWR VPWR _0199_ sky130_fd_sc_hd__clkbuf_1
XFILLER_0_75_57 VPWR VGND VPWR VGND sky130_ef_sc_hd__decap_12
XFILLER_0_24_83 VGND VGND VPWR VPWR sky130_fd_sc_hd__fill_1
XFILLER_0_59_497 VGND VGND VPWR VPWR sky130_fd_sc_hd__decap_6
XFILLER_0_74_489 VPWR VGND VPWR VGND sky130_ef_sc_hd__decap_12
XFILLER_0_15_501 VGND VGND VPWR VPWR sky130_fd_sc_hd__decap_3
XTAP_TAPCELL_ROW_30_462 VGND VPWR sky130_fd_sc_hd__tapvpwrvgnd_1
Xclkbuf_4_12_0_clk clknet_0_clk VGND VGND VPWR VPWR clknet_4_12_0_clk sky130_fd_sc_hd__clkbuf_8
XPHY_EDGE_ROW_18_Left_107 VGND VGND VPWR VPWR sky130_fd_sc_hd__decap_3
X_2707_ clknet_4_3_0_clk _0285_ _0101_ VGND VGND VPWR VPWR rf.registers\[25\]\[12\]
+ sky130_fd_sc_hd__dfrtp_1
XFILLER_0_71_3 VPWR VGND VPWR VGND sky130_ef_sc_hd__decap_12
XFILLER_0_30_515 VGND VGND VPWR VPWR sky130_fd_sc_hd__fill_1
XFILLER_0_42_386 VGND VGND VPWR VPWR sky130_fd_sc_hd__decap_4
X_2638_ _1273_ VGND VGND VPWR VPWR _0056_ sky130_fd_sc_hd__inv_2
X_2569_ _1264_ VGND VGND VPWR VPWR _0159_ sky130_fd_sc_hd__inv_2
XFILLER_0_10_283 VGND VGND VPWR VPWR sky130_fd_sc_hd__decap_3
XFILLER_0_69_217 VGND VGND VPWR VPWR sky130_fd_sc_hd__decap_6
XPHY_EDGE_ROW_27_Left_116 VGND VGND VPWR VPWR sky130_fd_sc_hd__decap_3
XFILLER_0_84_209 VPWR VGND VPWR VGND sky130_ef_sc_hd__decap_12
XFILLER_0_77_261 VPWR VGND VPWR VGND sky130_ef_sc_hd__decap_12
XFILLER_0_37_125 VPWR VGND VPWR VGND sky130_ef_sc_hd__decap_12
XPHY_EDGE_ROW_36_Left_125 VGND VGND VPWR VPWR sky130_fd_sc_hd__decap_3
XFILLER_0_52_139 VGND VGND VPWR VPWR sky130_fd_sc_hd__fill_1
XFILLER_0_29_39 VPWR VGND VPWR VGND sky130_ef_sc_hd__decap_12
XPHY_EDGE_ROW_45_Left_134 VGND VGND VPWR VPWR sky130_fd_sc_hd__decap_3
XFILLER_0_45_27 VPWR VGND VPWR VGND sky130_ef_sc_hd__decap_12
XTAP_TAPCELL_ROW_72_841 VGND VPWR sky130_fd_sc_hd__tapvpwrvgnd_1
XFILLER_0_0_29 VGND VGND VPWR VPWR sky130_fd_sc_hd__fill_2
XFILLER_0_61_15 VPWR VGND VPWR VGND sky130_ef_sc_hd__decap_12
XFILLER_0_56_401 VPWR VGND VPWR VGND sky130_ef_sc_hd__decap_12
XTAP_TAPCELL_ROW_44_587 VGND VPWR sky130_fd_sc_hd__tapvpwrvgnd_1
X_1940_ net84 _0796_ VGND VGND VPWR VPWR _0850_ sky130_fd_sc_hd__nand2_1
XFILLER_0_56_445 VPWR VGND VPWR VGND sky130_ef_sc_hd__decap_12
XFILLER_0_16_309 VGND VGND VPWR VPWR sky130_fd_sc_hd__decap_3
XFILLER_0_28_158 VGND VGND VPWR VPWR sky130_fd_sc_hd__decap_3
X_1871_ _0780_ _0785_ VGND VGND VPWR VPWR _0786_ sky130_fd_sc_hd__nor2_1
XPHY_EDGE_ROW_54_Left_143 VGND VGND VPWR VPWR sky130_fd_sc_hd__decap_3
XFILLER_0_56_489 VPWR VGND VPWR VGND sky130_ef_sc_hd__decap_12
XFILLER_0_3_225 VGND VGND VPWR VPWR sky130_fd_sc_hd__fill_1
XFILLER_0_10_41 VPWR VGND VPWR VGND sky130_ef_sc_hd__decap_12
XFILLER_0_3_247 VGND VGND VPWR VPWR sky130_fd_sc_hd__fill_1
XFILLER_0_51_161 VGND VGND VPWR VPWR sky130_fd_sc_hd__decap_6
XFILLER_0_10_85 VPWR VGND VPWR VGND sky130_ef_sc_hd__decap_12
X_2423_ _1214_ _1229_ _1231_ VGND VGND VPWR VPWR _1232_ sky130_fd_sc_hd__and3_1
X_2354_ _1181_ VGND VGND VPWR VPWR _1182_ sky130_fd_sc_hd__clkbuf_2
XPHY_EDGE_ROW_63_Left_152 VGND VGND VPWR VPWR sky130_fd_sc_hd__decap_3
X_1305_ net244 _0367_ VGND VGND VPWR VPWR _0369_ sky130_fd_sc_hd__and2_1
X_2285_ _1152_ VGND VGND VPWR VPWR _0266_ sky130_fd_sc_hd__clkbuf_1
XFILLER_0_66_209 VPWR VGND VPWR VGND sky130_ef_sc_hd__decap_12
XFILLER_0_35_93 VPWR VGND VPWR VGND sky130_ef_sc_hd__decap_12
XTAP_TAPCELL_ROW_35_510 VGND VPWR sky130_fd_sc_hd__tapvpwrvgnd_1
XFILLER_0_59_261 VPWR VGND VPWR VGND sky130_ef_sc_hd__decap_12
XPHY_EDGE_ROW_72_Left_161 VGND VGND VPWR VPWR sky130_fd_sc_hd__decap_3
XFILLER_0_19_125 VPWR VGND VPWR VGND sky130_ef_sc_hd__decap_12
XFILLER_0_74_253 VPWR VGND VPWR VGND sky130_ef_sc_hd__decap_12
XFILLER_0_19_169 VPWR VGND VPWR VGND sky130_ef_sc_hd__decap_12
XFILLER_0_51_81 VPWR VGND VPWR VGND sky130_ef_sc_hd__decap_12
XFILLER_0_34_117 VGND VGND VPWR VPWR sky130_fd_sc_hd__decap_3
XFILLER_0_15_397 VGND VGND VPWR VPWR sky130_fd_sc_hd__fill_1
XANTENNA__1807__A net78 VGND VGND VPWR VPWR sky130_fd_sc_hd__diode_2
XFILLER_0_42_172 VGND VGND VPWR VPWR sky130_fd_sc_hd__fill_2
XFILLER_0_30_345 VPWR VGND VPWR VGND sky130_ef_sc_hd__decap_12
XPHY_EDGE_ROW_81_Left_170 VGND VGND VPWR VPWR sky130_fd_sc_hd__decap_3
XTAP_TAPCELL_ROW_7_257 VGND VPWR sky130_fd_sc_hd__tapvpwrvgnd_1
XTAP_TAPCELL_ROW_86_966 VGND VPWR sky130_fd_sc_hd__tapvpwrvgnd_1
XANTENNA__2294__A1 _1033_ VGND VGND VPWR VPWR sky130_fd_sc_hd__diode_2
XANTENNA__2710__CLK clknet_4_3_0_clk VGND VGND VPWR VPWR sky130_fd_sc_hd__diode_2
XFILLER_0_38_456 VGND VGND VPWR VPWR sky130_fd_sc_hd__fill_2
XANTENNA__2046__A1 net122 VGND VGND VPWR VPWR sky130_fd_sc_hd__diode_2
XTAP_TAPCELL_ROW_41_557 VGND VPWR sky130_fd_sc_hd__tapvpwrvgnd_1
XFILLER_0_18_180 VPWR VGND VPWR VGND sky130_ef_sc_hd__decap_12
XFILLER_0_80_245 VGND VGND VPWR VPWR sky130_fd_sc_hd__decap_6
XFILLER_0_80_289 VPWR VGND VPWR VGND sky130_ef_sc_hd__decap_12
XFILLER_0_21_312 VGND VGND VPWR VPWR sky130_fd_sc_hd__fill_2
XFILLER_0_33_150 VGND VGND VPWR VPWR sky130_fd_sc_hd__fill_2
XFILLER_0_40_109 VPWR VGND VPWR VGND sky130_ef_sc_hd__decap_12
XFILLER_0_56_15 VPWR VGND VPWR VGND sky130_ef_sc_hd__decap_12
XANTENNA__1452__A _0437_ VGND VGND VPWR VPWR sky130_fd_sc_hd__diode_2
XPHY_EDGE_ROW_3_Left_92 VGND VGND VPWR VPWR sky130_fd_sc_hd__decap_3
X_2070_ _0970_ _0971_ _0832_ VGND VGND VPWR VPWR _0972_ sky130_fd_sc_hd__mux2_1
XTAP_TAPCELL_ROW_49_635 VGND VPWR sky130_fd_sc_hd__tapvpwrvgnd_1
XFILLER_0_48_209 VPWR VGND VPWR VGND sky130_ef_sc_hd__decap_12
XANTENNA__2283__A _0400_ VGND VGND VPWR VPWR sky130_fd_sc_hd__diode_2
X_1923_ _0834_ _0835_ VGND VGND VPWR VPWR _0836_ sky130_fd_sc_hd__nand2_1
XFILLER_0_56_253 VPWR VGND VPWR VGND sky130_ef_sc_hd__decap_12
XFILLER_0_71_223 VGND VGND VPWR VPWR sky130_fd_sc_hd__fill_1
XANTENNA__1796__B1 net83 VGND VGND VPWR VPWR sky130_fd_sc_hd__diode_2
XFILLER_0_21_51 VGND VGND VPWR VPWR sky130_fd_sc_hd__decap_4
X_1854_ rf.registers\[25\]\[29\] net140 _0483_ rf.registers\[10\]\[29\] VGND VGND
+ VPWR VPWR _0772_ sky130_fd_sc_hd__a22o_1
XFILLER_0_24_172 VPWR VGND VPWR VGND sky130_ef_sc_hd__decap_12
X_1785_ _0709_ VGND VGND VPWR VPWR net81 sky130_fd_sc_hd__buf_2
X_2406_ net223 _1218_ _1214_ VGND VGND VPWR VPWR _1220_ sky130_fd_sc_hd__o21ai_1
XTAP_TAPCELL_ROW_4_227 VGND VPWR sky130_fd_sc_hd__tapvpwrvgnd_1
X_2337_ net142 _0392_ _1144_ VGND VGND VPWR VPWR net63 sky130_fd_sc_hd__o21a_1
XFILLER_0_34_3 VPWR VGND VPWR VGND sky130_ef_sc_hd__decap_12
X_2268_ net323 _1142_ _0483_ VGND VGND VPWR VPWR _1143_ sky130_fd_sc_hd__mux2_1
XTAP_TAPCELL_ROW_83_936 VGND VPWR sky130_fd_sc_hd__tapvpwrvgnd_1
X_2199_ rf.registers\[25\]\[13\] _1086_ _1087_ VGND VGND VPWR VPWR _1088_ sky130_fd_sc_hd__mux2_1
XANTENNA__2028__A1 _0790_ VGND VGND VPWR VPWR sky130_fd_sc_hd__diode_2
XFILLER_0_47_253 VGND VGND VPWR VPWR sky130_fd_sc_hd__fill_1
XFILLER_0_47_275 VGND VGND VPWR VPWR sky130_fd_sc_hd__decap_4
XFILLER_0_62_245 VGND VGND VPWR VPWR sky130_fd_sc_hd__decap_6
XFILLER_0_7_361 VGND VGND VPWR VPWR sky130_fd_sc_hd__fill_2
XFILLER_0_50_407 VGND VGND VPWR VPWR sky130_fd_sc_hd__fill_1
XFILLER_0_62_289 VPWR VGND VPWR VGND sky130_ef_sc_hd__decap_12
XFILLER_0_22_109 VGND VGND VPWR VPWR sky130_fd_sc_hd__fill_2
XANTENNA__2132__S _1016_ VGND VGND VPWR VPWR sky130_fd_sc_hd__diode_2
Xhold30 ssdc.clk_divider\[2\] VGND VGND VPWR VPWR net212 sky130_fd_sc_hd__dlygate4sd3_1
Xhold41 ssdc.clk_divider\[4\] VGND VGND VPWR VPWR net223 sky130_fd_sc_hd__dlygate4sd3_1
Xhold63 rf.registers\[5\]\[5\] VGND VGND VPWR VPWR net245 sky130_fd_sc_hd__dlygate4sd3_1
Xhold74 rf.registers\[15\]\[6\] VGND VGND VPWR VPWR net256 sky130_fd_sc_hd__dlygate4sd3_1
XFILLER_0_26_29 VPWR VGND VPWR VGND sky130_ef_sc_hd__decap_12
Xhold52 net10 VGND VGND VPWR VPWR net234 sky130_fd_sc_hd__dlygate4sd3_1
XANTENNA__2267__A1 _1025_ VGND VGND VPWR VPWR sky130_fd_sc_hd__diode_2
Xhold85 rf.registers\[15\]\[31\] VGND VGND VPWR VPWR net267 sky130_fd_sc_hd__dlygate4sd3_1