* NGSPICE file created from TopModule.ext - technology: sky130A

* Black-box entry subcircuit for sky130_fd_sc_hd__fill_1 abstract view
.subckt sky130_fd_sc_hd__fill_1 VGND VNB VPB VPWR
.ends

* Black-box entry subcircuit for sky130_fd_sc_hd__decap_6 abstract view
.subckt sky130_fd_sc_hd__decap_6 VGND VNB VPB VPWR
.ends

* Black-box entry subcircuit for sky130_fd_sc_hd__fill_2 abstract view
.subckt sky130_fd_sc_hd__fill_2 VGND VNB VPB VPWR
.ends

* Black-box entry subcircuit for sky130_fd_sc_hd__diode_2 abstract view
.subckt sky130_fd_sc_hd__diode_2 DIODE VGND VNB VPB VPWR
.ends

* Black-box entry subcircuit for sky130_fd_sc_hd__clkbuf_1 abstract view
.subckt sky130_fd_sc_hd__clkbuf_1 A VGND VNB VPB VPWR X
.ends

* Black-box entry subcircuit for sky130_fd_sc_hd__mux2_1 abstract view
.subckt sky130_fd_sc_hd__mux2_1 A0 A1 S VGND VNB VPB VPWR X
.ends

* Black-box entry subcircuit for sky130_fd_sc_hd__decap_4 abstract view
.subckt sky130_fd_sc_hd__decap_4 VGND VNB VPB VPWR
.ends

* Black-box entry subcircuit for sky130_ef_sc_hd__decap_12 abstract view
.subckt sky130_ef_sc_hd__decap_12 VPWR VGND VPB VNB
.ends

* Black-box entry subcircuit for sky130_fd_sc_hd__tapvpwrvgnd_1 abstract view
.subckt sky130_fd_sc_hd__tapvpwrvgnd_1 VGND VPWR
.ends

* Black-box entry subcircuit for sky130_fd_sc_hd__decap_8 abstract view
.subckt sky130_fd_sc_hd__decap_8 VGND VNB VPB VPWR
.ends

* Black-box entry subcircuit for sky130_fd_sc_hd__dfxtp_1 abstract view
.subckt sky130_fd_sc_hd__dfxtp_1 CLK D VGND VNB VPB VPWR Q
.ends

* Black-box entry subcircuit for sky130_fd_sc_hd__o21ai_1 abstract view
.subckt sky130_fd_sc_hd__o21ai_1 A1 A2 B1 VGND VNB VPB VPWR Y
.ends

* Black-box entry subcircuit for sky130_fd_sc_hd__o22a_4 abstract view
.subckt sky130_fd_sc_hd__o22a_4 A1 A2 B1 B2 VGND VNB VPB VPWR X
.ends

* Black-box entry subcircuit for sky130_fd_sc_hd__o22a_1 abstract view
.subckt sky130_fd_sc_hd__o22a_1 A1 A2 B1 B2 VGND VNB VPB VPWR X
.ends

* Black-box entry subcircuit for sky130_fd_sc_hd__dlygate4sd3_1 abstract view
.subckt sky130_fd_sc_hd__dlygate4sd3_1 A VGND VNB VPB VPWR X
.ends

* Black-box entry subcircuit for sky130_fd_sc_hd__decap_3 abstract view
.subckt sky130_fd_sc_hd__decap_3 VGND VNB VPB VPWR
.ends

* Black-box entry subcircuit for sky130_fd_sc_hd__a211o_1 abstract view
.subckt sky130_fd_sc_hd__a211o_1 A1 A2 B1 C1 VGND VNB VPB VPWR X
.ends

* Black-box entry subcircuit for sky130_fd_sc_hd__clkbuf_4 abstract view
.subckt sky130_fd_sc_hd__clkbuf_4 A VGND VNB VPB VPWR X
.ends

* Black-box entry subcircuit for sky130_fd_sc_hd__or2_1 abstract view
.subckt sky130_fd_sc_hd__or2_1 A B VGND VNB VPB VPWR X
.ends

* Black-box entry subcircuit for sky130_fd_sc_hd__mux4_1 abstract view
.subckt sky130_fd_sc_hd__mux4_1 A0 A1 A2 A3 S0 S1 VGND VNB VPB VPWR X
.ends

* Black-box entry subcircuit for sky130_fd_sc_hd__buf_4 abstract view
.subckt sky130_fd_sc_hd__buf_4 A VGND VNB VPB VPWR X
.ends

* Black-box entry subcircuit for sky130_fd_sc_hd__clkbuf_8 abstract view
.subckt sky130_fd_sc_hd__clkbuf_8 A VGND VNB VPB VPWR X
.ends

* Black-box entry subcircuit for sky130_fd_sc_hd__o21ba_1 abstract view
.subckt sky130_fd_sc_hd__o21ba_1 A1 A2 B1_N VGND VNB VPB VPWR X
.ends

* Black-box entry subcircuit for sky130_fd_sc_hd__nand2_1 abstract view
.subckt sky130_fd_sc_hd__nand2_1 A B VGND VNB VPB VPWR Y
.ends

* Black-box entry subcircuit for sky130_fd_sc_hd__nand2_2 abstract view
.subckt sky130_fd_sc_hd__nand2_2 A B VGND VNB VPB VPWR Y
.ends

* Black-box entry subcircuit for sky130_fd_sc_hd__buf_2 abstract view
.subckt sky130_fd_sc_hd__buf_2 A VGND VNB VPB VPWR X
.ends

* Black-box entry subcircuit for sky130_fd_sc_hd__and2b_1 abstract view
.subckt sky130_fd_sc_hd__and2b_1 A_N B VGND VNB VPB VPWR X
.ends

* Black-box entry subcircuit for sky130_fd_sc_hd__clkinv_1 abstract view
.subckt sky130_fd_sc_hd__clkinv_1 A VGND VNB VPB VPWR Y
.ends

* Black-box entry subcircuit for sky130_fd_sc_hd__nand3_1 abstract view
.subckt sky130_fd_sc_hd__nand3_1 A B C VGND VNB VPB VPWR Y
.ends

* Black-box entry subcircuit for sky130_fd_sc_hd__nor2_1 abstract view
.subckt sky130_fd_sc_hd__nor2_1 A B VGND VNB VPB VPWR Y
.ends

* Black-box entry subcircuit for sky130_fd_sc_hd__nor2_2 abstract view
.subckt sky130_fd_sc_hd__nor2_2 A B VGND VNB VPB VPWR Y
.ends

* Black-box entry subcircuit for sky130_fd_sc_hd__a221o_1 abstract view
.subckt sky130_fd_sc_hd__a221o_1 A1 A2 B1 B2 C1 VGND VNB VPB VPWR X
.ends

* Black-box entry subcircuit for sky130_fd_sc_hd__or3_2 abstract view
.subckt sky130_fd_sc_hd__or3_2 A B C VGND VNB VPB VPWR X
.ends

* Black-box entry subcircuit for sky130_fd_sc_hd__a32o_1 abstract view
.subckt sky130_fd_sc_hd__a32o_1 A1 A2 A3 B1 B2 VGND VNB VPB VPWR X
.ends

* Black-box entry subcircuit for sky130_fd_sc_hd__o21a_1 abstract view
.subckt sky130_fd_sc_hd__o21a_1 A1 A2 B1 VGND VNB VPB VPWR X
.ends

* Black-box entry subcircuit for sky130_fd_sc_hd__xnor2_1 abstract view
.subckt sky130_fd_sc_hd__xnor2_1 A B VGND VNB VPB VPWR Y
.ends

* Black-box entry subcircuit for sky130_fd_sc_hd__a21o_1 abstract view
.subckt sky130_fd_sc_hd__a21o_1 A1 A2 B1 VGND VNB VPB VPWR X
.ends

* Black-box entry subcircuit for sky130_fd_sc_hd__or4_4 abstract view
.subckt sky130_fd_sc_hd__or4_4 A B C D VGND VNB VPB VPWR X
.ends

* Black-box entry subcircuit for sky130_fd_sc_hd__o2bb2a_1 abstract view
.subckt sky130_fd_sc_hd__o2bb2a_1 A1_N A2_N B1 B2 VGND VNB VPB VPWR X
.ends

* Black-box entry subcircuit for sky130_fd_sc_hd__bufinv_16 abstract view
.subckt sky130_fd_sc_hd__bufinv_16 A VGND VNB VPB VPWR Y
.ends

* Black-box entry subcircuit for sky130_fd_sc_hd__clkinv_4 abstract view
.subckt sky130_fd_sc_hd__clkinv_4 A VGND VNB VPB VPWR Y
.ends

* Black-box entry subcircuit for sky130_fd_sc_hd__and3_1 abstract view
.subckt sky130_fd_sc_hd__and3_1 A B C VGND VNB VPB VPWR X
.ends

* Black-box entry subcircuit for sky130_fd_sc_hd__nor2b_2 abstract view
.subckt sky130_fd_sc_hd__nor2b_2 A B_N VGND VNB VPB VPWR Y
.ends

* Black-box entry subcircuit for sky130_fd_sc_hd__a21oi_2 abstract view
.subckt sky130_fd_sc_hd__a21oi_2 A1 A2 B1 VGND VNB VPB VPWR Y
.ends

* Black-box entry subcircuit for sky130_fd_sc_hd__dfxtp_2 abstract view
.subckt sky130_fd_sc_hd__dfxtp_2 CLK D VGND VNB VPB VPWR Q
.ends

* Black-box entry subcircuit for sky130_fd_sc_hd__xnor2_2 abstract view
.subckt sky130_fd_sc_hd__xnor2_2 A B VGND VNB VPB VPWR Y
.ends

* Black-box entry subcircuit for sky130_fd_sc_hd__a311oi_2 abstract view
.subckt sky130_fd_sc_hd__a311oi_2 A1 A2 A3 B1 C1 VGND VNB VPB VPWR Y
.ends

* Black-box entry subcircuit for sky130_fd_sc_hd__and3b_1 abstract view
.subckt sky130_fd_sc_hd__and3b_1 A_N B C VGND VNB VPB VPWR X
.ends

* Black-box entry subcircuit for sky130_fd_sc_hd__and2_1 abstract view
.subckt sky130_fd_sc_hd__and2_1 A B VGND VNB VPB VPWR X
.ends

* Black-box entry subcircuit for sky130_fd_sc_hd__o21a_2 abstract view
.subckt sky130_fd_sc_hd__o21a_2 A1 A2 B1 VGND VNB VPB VPWR X
.ends

* Black-box entry subcircuit for sky130_fd_sc_hd__o22a_2 abstract view
.subckt sky130_fd_sc_hd__o22a_2 A1 A2 B1 B2 VGND VNB VPB VPWR X
.ends

* Black-box entry subcircuit for sky130_fd_sc_hd__inv_6 abstract view
.subckt sky130_fd_sc_hd__inv_6 A VGND VNB VPB VPWR Y
.ends

* Black-box entry subcircuit for sky130_fd_sc_hd__o21bai_2 abstract view
.subckt sky130_fd_sc_hd__o21bai_2 A1 A2 B1_N VGND VNB VPB VPWR Y
.ends

* Black-box entry subcircuit for sky130_fd_sc_hd__o211a_1 abstract view
.subckt sky130_fd_sc_hd__o211a_1 A1 A2 B1 C1 VGND VNB VPB VPWR X
.ends

* Black-box entry subcircuit for sky130_fd_sc_hd__buf_1 abstract view
.subckt sky130_fd_sc_hd__buf_1 A VGND VNB VPB VPWR X
.ends

* Black-box entry subcircuit for sky130_fd_sc_hd__a21boi_2 abstract view
.subckt sky130_fd_sc_hd__a21boi_2 A1 A2 B1_N VGND VNB VPB VPWR Y
.ends

* Black-box entry subcircuit for sky130_fd_sc_hd__nor2_4 abstract view
.subckt sky130_fd_sc_hd__nor2_4 A B VGND VNB VPB VPWR Y
.ends

* Black-box entry subcircuit for sky130_fd_sc_hd__mux4_2 abstract view
.subckt sky130_fd_sc_hd__mux4_2 A0 A1 A2 A3 S0 S1 VGND VNB VPB VPWR X
.ends

* Black-box entry subcircuit for sky130_fd_sc_hd__or2b_1 abstract view
.subckt sky130_fd_sc_hd__or2b_1 A B_N VGND VNB VPB VPWR X
.ends

* Black-box entry subcircuit for sky130_fd_sc_hd__clkinvlp_4 abstract view
.subckt sky130_fd_sc_hd__clkinvlp_4 A VGND VNB VPB VPWR Y
.ends

* Black-box entry subcircuit for sky130_fd_sc_hd__clkinvlp_2 abstract view
.subckt sky130_fd_sc_hd__clkinvlp_2 A VGND VNB VPB VPWR Y
.ends

* Black-box entry subcircuit for sky130_fd_sc_hd__or4_1 abstract view
.subckt sky130_fd_sc_hd__or4_1 A B C D VGND VNB VPB VPWR X
.ends

* Black-box entry subcircuit for sky130_fd_sc_hd__or3b_2 abstract view
.subckt sky130_fd_sc_hd__or3b_2 A B C_N VGND VNB VPB VPWR X
.ends

* Black-box entry subcircuit for sky130_fd_sc_hd__o21bai_1 abstract view
.subckt sky130_fd_sc_hd__o21bai_1 A1 A2 B1_N VGND VNB VPB VPWR Y
.ends

* Black-box entry subcircuit for sky130_fd_sc_hd__xor2_1 abstract view
.subckt sky130_fd_sc_hd__xor2_1 A B VGND VNB VPB VPWR X
.ends

* Black-box entry subcircuit for sky130_fd_sc_hd__a221o_2 abstract view
.subckt sky130_fd_sc_hd__a221o_2 A1 A2 B1 B2 C1 VGND VNB VPB VPWR X
.ends

* Black-box entry subcircuit for sky130_fd_sc_hd__a21oi_1 abstract view
.subckt sky130_fd_sc_hd__a21oi_1 A1 A2 B1 VGND VNB VPB VPWR Y
.ends

* Black-box entry subcircuit for sky130_fd_sc_hd__clkinv_16 abstract view
.subckt sky130_fd_sc_hd__clkinv_16 A VGND VNB VPB VPWR Y
.ends

* Black-box entry subcircuit for sky130_fd_sc_hd__nand3b_4 abstract view
.subckt sky130_fd_sc_hd__nand3b_4 A_N B C VGND VNB VPB VPWR Y
.ends

* Black-box entry subcircuit for sky130_fd_sc_hd__a22o_1 abstract view
.subckt sky130_fd_sc_hd__a22o_1 A1 A2 B1 B2 VGND VNB VPB VPWR X
.ends

* Black-box entry subcircuit for sky130_fd_sc_hd__dlymetal6s2s_1 abstract view
.subckt sky130_fd_sc_hd__dlymetal6s2s_1 A VGND VNB VPB VPWR X
.ends

* Black-box entry subcircuit for sky130_fd_sc_hd__xor2_2 abstract view
.subckt sky130_fd_sc_hd__xor2_2 A B VGND VNB VPB VPWR X
.ends

* Black-box entry subcircuit for sky130_fd_sc_hd__a21boi_1 abstract view
.subckt sky130_fd_sc_hd__a21boi_1 A1 A2 B1_N VGND VNB VPB VPWR Y
.ends

* Black-box entry subcircuit for sky130_fd_sc_hd__or2_2 abstract view
.subckt sky130_fd_sc_hd__or2_2 A B VGND VNB VPB VPWR X
.ends

* Black-box entry subcircuit for sky130_fd_sc_hd__or3_1 abstract view
.subckt sky130_fd_sc_hd__or3_1 A B C VGND VNB VPB VPWR X
.ends

* Black-box entry subcircuit for sky130_fd_sc_hd__inv_8 abstract view
.subckt sky130_fd_sc_hd__inv_8 A VGND VNB VPB VPWR Y
.ends

* Black-box entry subcircuit for sky130_fd_sc_hd__buf_6 abstract view
.subckt sky130_fd_sc_hd__buf_6 A VGND VNB VPB VPWR X
.ends

* Black-box entry subcircuit for sky130_fd_sc_hd__inv_16 abstract view
.subckt sky130_fd_sc_hd__inv_16 A VGND VNB VPB VPWR Y
.ends

* Black-box entry subcircuit for sky130_fd_sc_hd__a31o_1 abstract view
.subckt sky130_fd_sc_hd__a31o_1 A1 A2 A3 B1 VGND VNB VPB VPWR X
.ends

* Black-box entry subcircuit for sky130_fd_sc_hd__o31a_1 abstract view
.subckt sky130_fd_sc_hd__o31a_1 A1 A2 A3 B1 VGND VNB VPB VPWR X
.ends

* Black-box entry subcircuit for sky130_fd_sc_hd__o41a_1 abstract view
.subckt sky130_fd_sc_hd__o41a_1 A1 A2 A3 A4 B1 VGND VNB VPB VPWR X
.ends

* Black-box entry subcircuit for sky130_fd_sc_hd__or2_4 abstract view
.subckt sky130_fd_sc_hd__or2_4 A B VGND VNB VPB VPWR X
.ends

* Black-box entry subcircuit for sky130_fd_sc_hd__or3_4 abstract view
.subckt sky130_fd_sc_hd__or3_4 A B C VGND VNB VPB VPWR X
.ends

* Black-box entry subcircuit for sky130_fd_sc_hd__clkinv_8 abstract view
.subckt sky130_fd_sc_hd__clkinv_8 A VGND VNB VPB VPWR Y
.ends

* Black-box entry subcircuit for sky130_fd_sc_hd__or4b_1 abstract view
.subckt sky130_fd_sc_hd__or4b_1 A B C D_N VGND VNB VPB VPWR X
.ends

* Black-box entry subcircuit for sky130_fd_sc_hd__o311a_1 abstract view
.subckt sky130_fd_sc_hd__o311a_1 A1 A2 A3 B1 C1 VGND VNB VPB VPWR X
.ends

* Black-box entry subcircuit for sky130_fd_sc_hd__inv_12 abstract view
.subckt sky130_fd_sc_hd__inv_12 A VGND VNB VPB VPWR Y
.ends

* Black-box entry subcircuit for sky130_fd_sc_hd__clkbuf_16 abstract view
.subckt sky130_fd_sc_hd__clkbuf_16 A VGND VNB VPB VPWR X
.ends

* Black-box entry subcircuit for sky130_fd_sc_hd__inv_2 abstract view
.subckt sky130_fd_sc_hd__inv_2 A VGND VNB VPB VPWR Y
.ends

* Black-box entry subcircuit for sky130_fd_sc_hd__o221a_1 abstract view
.subckt sky130_fd_sc_hd__o221a_1 A1 A2 B1 B2 C1 VGND VNB VPB VPWR X
.ends

* Black-box entry subcircuit for sky130_fd_sc_hd__a31oi_4 abstract view
.subckt sky130_fd_sc_hd__a31oi_4 A1 A2 A3 B1 VGND VNB VPB VPWR Y
.ends

* Black-box entry subcircuit for sky130_fd_sc_hd__or4bb_4 abstract view
.subckt sky130_fd_sc_hd__or4bb_4 A B C_N D_N VGND VNB VPB VPWR X
.ends

* Black-box entry subcircuit for sky130_fd_sc_hd__o32a_1 abstract view
.subckt sky130_fd_sc_hd__o32a_1 A1 A2 A3 B1 B2 VGND VNB VPB VPWR X
.ends

* Black-box entry subcircuit for sky130_fd_sc_hd__clkbuf_2 abstract view
.subckt sky130_fd_sc_hd__clkbuf_2 A VGND VNB VPB VPWR X
.ends

* Black-box entry subcircuit for sky130_fd_sc_hd__o22ai_2 abstract view
.subckt sky130_fd_sc_hd__o22ai_2 A1 A2 B1 B2 VGND VNB VPB VPWR Y
.ends

* Black-box entry subcircuit for sky130_fd_sc_hd__mux2_2 abstract view
.subckt sky130_fd_sc_hd__mux2_2 A0 A1 S VGND VNB VPB VPWR X
.ends

* Black-box entry subcircuit for sky130_fd_sc_hd__a2111o_1 abstract view
.subckt sky130_fd_sc_hd__a2111o_1 A1 A2 B1 C1 D1 VGND VNB VPB VPWR X
.ends

* Black-box entry subcircuit for sky130_fd_sc_hd__a21oi_4 abstract view
.subckt sky130_fd_sc_hd__a21oi_4 A1 A2 B1 VGND VNB VPB VPWR Y
.ends

* Black-box entry subcircuit for sky130_fd_sc_hd__nand2_4 abstract view
.subckt sky130_fd_sc_hd__nand2_4 A B VGND VNB VPB VPWR Y
.ends

* Black-box entry subcircuit for sky130_fd_sc_hd__and3b_2 abstract view
.subckt sky130_fd_sc_hd__and3b_2 A_N B C VGND VNB VPB VPWR X
.ends

* Black-box entry subcircuit for sky130_fd_sc_hd__or3b_1 abstract view
.subckt sky130_fd_sc_hd__or3b_1 A B C_N VGND VNB VPB VPWR X
.ends

* Black-box entry subcircuit for sky130_fd_sc_hd__and3_4 abstract view
.subckt sky130_fd_sc_hd__and3_4 A B C VGND VNB VPB VPWR X
.ends

* Black-box entry subcircuit for sky130_fd_sc_hd__a22oi_1 abstract view
.subckt sky130_fd_sc_hd__a22oi_1 A1 A2 B1 B2 VGND VNB VPB VPWR Y
.ends

* Black-box entry subcircuit for sky130_fd_sc_hd__o21ai_4 abstract view
.subckt sky130_fd_sc_hd__o21ai_4 A1 A2 B1 VGND VNB VPB VPWR Y
.ends

* Black-box entry subcircuit for sky130_fd_sc_hd__a41o_1 abstract view
.subckt sky130_fd_sc_hd__a41o_1 A1 A2 A3 A4 B1 VGND VNB VPB VPWR X
.ends

* Black-box entry subcircuit for sky130_fd_sc_hd__nand2b_1 abstract view
.subckt sky130_fd_sc_hd__nand2b_1 A_N B VGND VNB VPB VPWR Y
.ends

* Black-box entry subcircuit for sky130_fd_sc_hd__o32a_4 abstract view
.subckt sky130_fd_sc_hd__o32a_4 A1 A2 A3 B1 B2 VGND VNB VPB VPWR X
.ends

* Black-box entry subcircuit for sky130_fd_sc_hd__a21bo_4 abstract view
.subckt sky130_fd_sc_hd__a21bo_4 A1 A2 B1_N VGND VNB VPB VPWR X
.ends

* Black-box entry subcircuit for sky130_fd_sc_hd__nand3_4 abstract view
.subckt sky130_fd_sc_hd__nand3_4 A B C VGND VNB VPB VPWR Y
.ends

* Black-box entry subcircuit for sky130_fd_sc_hd__o31a_4 abstract view
.subckt sky130_fd_sc_hd__o31a_4 A1 A2 A3 B1 VGND VNB VPB VPWR X
.ends

* Black-box entry subcircuit for sky130_fd_sc_hd__or2b_4 abstract view
.subckt sky130_fd_sc_hd__or2b_4 A B_N VGND VNB VPB VPWR X
.ends

* Black-box entry subcircuit for sky130_fd_sc_hd__nor3_4 abstract view
.subckt sky130_fd_sc_hd__nor3_4 A B C VGND VNB VPB VPWR Y
.ends

* Black-box entry subcircuit for sky130_fd_sc_hd__or3b_4 abstract view
.subckt sky130_fd_sc_hd__or3b_4 A B C_N VGND VNB VPB VPWR X
.ends

* Black-box entry subcircuit for sky130_fd_sc_hd__and3_2 abstract view
.subckt sky130_fd_sc_hd__and3_2 A B C VGND VNB VPB VPWR X
.ends

* Black-box entry subcircuit for sky130_fd_sc_hd__buf_8 abstract view
.subckt sky130_fd_sc_hd__buf_8 A VGND VNB VPB VPWR X
.ends

* Black-box entry subcircuit for sky130_fd_sc_hd__clkdlybuf4s15_2 abstract view
.subckt sky130_fd_sc_hd__clkdlybuf4s15_2 A VGND VNB VPB VPWR X
.ends

* Black-box entry subcircuit for sky130_fd_sc_hd__o21ba_4 abstract view
.subckt sky130_fd_sc_hd__o21ba_4 A1 A2 B1_N VGND VNB VPB VPWR X
.ends

* Black-box entry subcircuit for sky130_fd_sc_hd__nand2b_4 abstract view
.subckt sky130_fd_sc_hd__nand2b_4 A_N B VGND VNB VPB VPWR Y
.ends

* Black-box entry subcircuit for sky130_fd_sc_hd__dlygate4sd1_1 abstract view
.subckt sky130_fd_sc_hd__dlygate4sd1_1 A VGND VNB VPB VPWR X
.ends

* Black-box entry subcircuit for sky130_fd_sc_hd__nor3_2 abstract view
.subckt sky130_fd_sc_hd__nor3_2 A B C VGND VNB VPB VPWR Y
.ends

* Black-box entry subcircuit for sky130_fd_sc_hd__nand3_2 abstract view
.subckt sky130_fd_sc_hd__nand3_2 A B C VGND VNB VPB VPWR Y
.ends

* Black-box entry subcircuit for sky130_fd_sc_hd__o211ai_4 abstract view
.subckt sky130_fd_sc_hd__o211ai_4 A1 A2 B1 C1 VGND VNB VPB VPWR Y
.ends

.subckt TopModule A1[0] A1[1] A1[2] A1[3] A1[4] A2[0] A2[1] A2[2] A2[3] A2[4] A3[0]
+ A3[1] A3[2] A3[3] A3[4] RD1[0] RD1[10] RD1[11] RD1[12] RD1[13] RD1[14] RD1[15] RD1[16]
+ RD1[17] RD1[18] RD1[19] RD1[1] RD1[20] RD1[21] RD1[22] RD1[23] RD1[24] RD1[25] RD1[26]
+ RD1[27] RD1[28] RD1[29] RD1[2] RD1[30] RD1[31] RD1[3] RD1[4] RD1[5] RD1[6] RD1[7]
+ RD1[8] RD1[9] RD2[0] RD2[10] RD2[11] RD2[12] RD2[13] RD2[14] RD2[15] RD2[16] RD2[17]
+ RD2[18] RD2[19] RD2[1] RD2[20] RD2[21] RD2[22] RD2[23] RD2[24] RD2[25] RD2[26] RD2[27]
+ RD2[28] RD2[29] RD2[2] RD2[30] RD2[31] RD2[3] RD2[4] RD2[5] RD2[6] RD2[7] RD2[8]
+ RD2[9] VGND VPWR WD3[0] WD3[10] WD3[11] WD3[12] WD3[13] WD3[14] WD3[15] WD3[16]
+ WD3[17] WD3[18] WD3[19] WD3[1] WD3[20] WD3[21] WD3[22] WD3[23] WD3[24] WD3[25] WD3[26]
+ WD3[27] WD3[28] WD3[29] WD3[2] WD3[30] WD3[31] WD3[3] WD3[4] WD3[5] WD3[6] WD3[7]
+ WD3[8] WD3[9] WE3 clk inputA[0] inputA[10] inputA[11] inputA[12] inputA[13] inputA[14]
+ inputA[15] inputA[16] inputA[17] inputA[18] inputA[19] inputA[1] inputA[20] inputA[21]
+ inputA[22] inputA[23] inputA[24] inputA[25] inputA[26] inputA[27] inputA[28] inputA[29]
+ inputA[2] inputA[30] inputA[31] inputA[3] inputA[4] inputA[5] inputA[6] inputA[7]
+ inputA[8] inputA[9] inputB[0] inputB[10] inputB[11] inputB[12] inputB[13] inputB[14]
+ inputB[15] inputB[16] inputB[17] inputB[18] inputB[19] inputB[1] inputB[20] inputB[21]
+ inputB[22] inputB[23] inputB[24] inputB[25] inputB[26] inputB[27] inputB[28] inputB[29]
+ inputB[2] inputB[30] inputB[31] inputB[3] inputB[4] inputB[5] inputB[6] inputB[7]
+ inputB[8] inputB[9] opcode[0] opcode[1] outputC[0] outputC[10] outputC[11] outputC[12]
+ outputC[13] outputC[14] outputC[15] outputC[16] outputC[17] outputC[18] outputC[19]
+ outputC[1] outputC[20] outputC[21] outputC[22] outputC[23] outputC[24] outputC[25]
+ outputC[26] outputC[27] outputC[28] outputC[29] outputC[2] outputC[30] outputC[31]
+ outputC[3] outputC[4] outputC[5] outputC[6] outputC[7] outputC[8] outputC[9]
XFILLER_0_20_1043 VGND VGND VPWR VPWR sky130_fd_sc_hd__fill_1
XFILLER_0_94_77 VGND VGND VPWR VPWR sky130_fd_sc_hd__decap_6
XFILLER_0_20_1054 VGND VGND VPWR VPWR sky130_fd_sc_hd__fill_2
XANTENNA__6626__S _3214_ VGND VGND VPWR VPWR sky130_fd_sc_hd__diode_2
X_7963_ _3942_ VGND VGND VPWR VPWR _0427_ sky130_fd_sc_hd__clkbuf_1
XANTENNA__6090__A0 _2858_ VGND VGND VPWR VPWR sky130_fd_sc_hd__diode_2
X_6914_ _3386_ VGND VGND VPWR VPWR _0958_ sky130_fd_sc_hd__clkbuf_1
X_7894_ net349 _3224_ _3898_ VGND VGND VPWR VPWR _3906_ sky130_fd_sc_hd__mux2_1
XFILLER_0_89_494 VGND VGND VPWR VPWR sky130_fd_sc_hd__fill_2
XFILLER_0_147_500 VGND VGND VPWR VPWR sky130_fd_sc_hd__fill_2
XFILLER_0_76_133 VGND VGND VPWR VPWR sky130_fd_sc_hd__decap_6
XFILLER_0_65_807 VGND VGND VPWR VPWR sky130_fd_sc_hd__fill_2
XFILLER_0_134_83 VGND VGND VPWR VPWR sky130_fd_sc_hd__fill_1
XFILLER_0_43_70 VGND VGND VPWR VPWR sky130_fd_sc_hd__decap_4
X_6845_ _3349_ VGND VGND VPWR VPWR _0926_ sky130_fd_sc_hd__clkbuf_1
XANTENNA__6917__A0 _2873_ VGND VGND VPWR VPWR sky130_fd_sc_hd__diode_2
XFILLER_0_159_393 VPWR VGND VPWR VGND sky130_ef_sc_hd__decap_12
XFILLER_0_18_701 VPWR VGND VPWR VGND sky130_ef_sc_hd__decap_12
XFILLER_0_64_306 VGND VGND VPWR VPWR sky130_fd_sc_hd__fill_2
XANTENNA__7457__S _3671_ VGND VGND VPWR VPWR sky130_fd_sc_hd__diode_2
XFILLER_0_58_881 VGND VGND VPWR VPWR sky130_fd_sc_hd__fill_2
XFILLER_0_76_177 VPWR VGND VPWR VGND sky130_ef_sc_hd__decap_12
XANTENNA__6361__S _3067_ VGND VGND VPWR VPWR sky130_fd_sc_hd__diode_2
XFILLER_0_147_555 VGND VGND VPWR VPWR sky130_fd_sc_hd__fill_1
XFILLER_0_92_637 VGND VGND VPWR VPWR sky130_fd_sc_hd__fill_2
XFILLER_0_119_246 VPWR VGND VPWR VGND sky130_ef_sc_hd__decap_12
XTAP_TAPCELL_ROW_21_802 VGND VPWR sky130_fd_sc_hd__tapvpwrvgnd_1
XFILLER_0_17_211 VGND VGND VPWR VPWR sky130_fd_sc_hd__decap_8
XFILLER_0_91_125 VPWR VGND VPWR VGND sky130_ef_sc_hd__decap_12
XANTENNA__6393__A1 _2967_ VGND VGND VPWR VPWR sky130_fd_sc_hd__diode_2
X_6776_ _3312_ VGND VGND VPWR VPWR _0894_ sky130_fd_sc_hd__clkbuf_1
XFILLER_0_174_363 VGND VGND VPWR VPWR sky130_fd_sc_hd__fill_1
XFILLER_0_57_391 VGND VGND VPWR VPWR sky130_fd_sc_hd__fill_1
XFILLER_0_130_1075 VGND VGND VPWR VPWR sky130_fd_sc_hd__fill_1
XFILLER_0_175_897 VGND VGND VPWR VPWR sky130_fd_sc_hd__fill_2
X_8515_ clknet_leaf_20_clk _0840_ VGND VGND VPWR VPWR regfile_inst.registers\[5\]\[24\]
+ sky130_fd_sc_hd__dfxtp_1
XANTENNA__5485__B _2326_ VGND VGND VPWR VPWR sky130_fd_sc_hd__diode_2
XFILLER_0_45_553 VGND VGND VPWR VPWR sky130_fd_sc_hd__decap_6
X_5727_ _2340_ _2323_ _2619_ VGND VGND VPWR VPWR _2620_ sky130_fd_sc_hd__o21ai_1
XFILLER_0_91_169 VPWR VGND VPWR VGND sky130_ef_sc_hd__decap_12
XFILLER_0_60_501 VGND VGND VPWR VPWR sky130_fd_sc_hd__decap_8
X_8446_ clknet_leaf_35_clk _0771_ VGND VGND VPWR VPWR regfile_inst.registers\[20\]\[19\]
+ sky130_fd_sc_hd__dfxtp_1
XFILLER_0_45_597 VPWR VGND VPWR VGND sky130_ef_sc_hd__decap_12
X_5658_ _2544_ _2548_ _2554_ _2333_ VGND VGND VPWR VPWR _1028_ sky130_fd_sc_hd__o22a_4
XFILLER_0_170_580 VGND VGND VPWR VPWR sky130_fd_sc_hd__fill_2
X_4609_ _1552_ _1555_ _1150_ VGND VGND VPWR VPWR _1556_ sky130_fd_sc_hd__mux2_1
XFILLER_0_14_973 VGND VGND VPWR VPWR sky130_fd_sc_hd__decap_6
X_8377_ clknet_leaf_31_clk _0702_ VGND VGND VPWR VPWR regfile_inst.registers\[11\]\[14\]
+ sky130_fd_sc_hd__dfxtp_1
X_5589_ _2283_ _2389_ _2489_ _2226_ VGND VGND VPWR VPWR _2490_ sky130_fd_sc_hd__o22a_1
XFILLER_0_13_461 VPWR VGND VPWR VGND sky130_ef_sc_hd__decap_12
Xhold340 regfile_inst.registers\[17\]\[3\] VGND VGND VPWR VPWR net544 sky130_fd_sc_hd__dlygate4sd3_1
XFILLER_0_103_669 VGND VGND VPWR VPWR sky130_fd_sc_hd__decap_3
X_7328_ _3606_ VGND VGND VPWR VPWR _0128_ sky130_fd_sc_hd__clkbuf_1
Xhold351 regfile_inst.registers\[13\]\[10\] VGND VGND VPWR VPWR net555 sky130_fd_sc_hd__dlygate4sd3_1
XFILLER_0_7_81 VPWR VGND VPWR VGND sky130_ef_sc_hd__decap_12
Xhold362 regfile_inst.registers\[4\]\[0\] VGND VGND VPWR VPWR net566 sky130_fd_sc_hd__dlygate4sd3_1
XTAP_TAPCELL_ROW_57_1475 VGND VPWR sky130_fd_sc_hd__tapvpwrvgnd_1
Xhold373 regfile_inst.registers\[1\]\[9\] VGND VGND VPWR VPWR net577 sky130_fd_sc_hd__dlygate4sd3_1
Xhold384 regfile_inst.registers\[5\]\[23\] VGND VGND VPWR VPWR net588 sky130_fd_sc_hd__dlygate4sd3_1
XTAP_TAPCELL_ROW_57_1486 VGND VPWR sky130_fd_sc_hd__tapvpwrvgnd_1
Xhold395 regfile_inst.registers\[3\]\[30\] VGND VGND VPWR VPWR net599 sky130_fd_sc_hd__dlygate4sd3_1
X_7259_ _2873_ net875 _3563_ VGND VGND VPWR VPWR _3570_ sky130_fd_sc_hd__mux2_1
XANTENNA__7920__S _3912_ VGND VGND VPWR VPWR sky130_fd_sc_hd__diode_2
XFILLER_0_99_1055 VGND VGND VPWR VPWR sky130_fd_sc_hd__decap_8
XFILLER_0_99_1077 VGND VGND VPWR VPWR sky130_fd_sc_hd__decap_4
XTAP_TAPCELL_ROW_142_3101 VGND VPWR sky130_fd_sc_hd__tapvpwrvgnd_1
XANTENNA__6536__S _3166_ VGND VGND VPWR VPWR sky130_fd_sc_hd__diode_2
XFILLER_0_99_225 VPWR VGND VPWR VGND sky130_ef_sc_hd__decap_12
XFILLER_0_169_113 VPWR VGND VPWR VGND sky130_ef_sc_hd__decap_12
XTAP_TAPCELL_ROW_29_946 VGND VPWR sky130_fd_sc_hd__tapvpwrvgnd_1
XANTENNA__4306__S1 _1072_ VGND VGND VPWR VPWR sky130_fd_sc_hd__diode_2
XFILLER_0_158_809 VGND VGND VPWR VPWR sky130_fd_sc_hd__decap_3
XFILLER_0_68_612 VGND VGND VPWR VPWR sky130_fd_sc_hd__fill_2
XFILLER_0_36_1061 VPWR VGND VPWR VGND sky130_ef_sc_hd__decap_12
XFILLER_0_96_965 VGND VGND VPWR VPWR sky130_fd_sc_hd__decap_3
XFILLER_0_138_533 VGND VGND VPWR VPWR sky130_fd_sc_hd__decap_3
XFILLER_0_166_853 VGND VGND VPWR VPWR sky130_fd_sc_hd__fill_2
XFILLER_0_55_317 VPWR VGND VPWR VGND sky130_ef_sc_hd__decap_12
XFILLER_0_138_555 VGND VGND VPWR VPWR sky130_fd_sc_hd__fill_1
XANTENNA__6271__S _3019_ VGND VGND VPWR VPWR sky130_fd_sc_hd__diode_2
XANTENNA__6384__A1 _2959_ VGND VGND VPWR VPWR sky130_fd_sc_hd__diode_2
XFILLER_0_36_531 VGND VGND VPWR VPWR sky130_fd_sc_hd__fill_1
XFILLER_0_125_205 VPWR VGND VPWR VGND sky130_ef_sc_hd__decap_12
XFILLER_0_165_385 VGND VGND VPWR VPWR sky130_fd_sc_hd__decap_6
XANTENNA_input92_A inputB[26] VGND VGND VPWR VPWR sky130_fd_sc_hd__diode_2
XFILLER_0_119_780 VGND VGND VPWR VPWR sky130_fd_sc_hd__fill_2
XFILLER_0_70_309 VPWR VGND VPWR VGND sky130_ef_sc_hd__decap_12
XFILLER_0_180_333 VPWR VGND VPWR VGND sky130_ef_sc_hd__decap_12
XFILLER_0_63_361 VPWR VGND VPWR VGND sky130_ef_sc_hd__decap_12
XFILLER_0_125_249 VPWR VGND VPWR VGND sky130_ef_sc_hd__decap_12
XFILLER_0_64_895 VGND VGND VPWR VPWR sky130_fd_sc_hd__decap_3
XFILLER_0_91_681 VGND VGND VPWR VPWR sky130_fd_sc_hd__decap_3
XFILLER_0_181_889 VGND VGND VPWR VPWR sky130_fd_sc_hd__decap_6
XFILLER_0_24_737 VPWR VGND VPWR VGND sky130_ef_sc_hd__decap_12
XFILLER_0_3_609 VGND VGND VPWR VPWR sky130_fd_sc_hd__decap_6
XFILLER_0_91_692 VGND VGND VPWR VPWR sky130_fd_sc_hd__fill_2
XFILLER_0_23_225 VGND VGND VPWR VPWR sky130_fd_sc_hd__fill_2
XFILLER_0_1_1081 VGND VGND VPWR VPWR sky130_fd_sc_hd__fill_1
XFILLER_0_180_377 VPWR VGND VPWR VGND sky130_ef_sc_hd__decap_12
XTAP_TAPCELL_ROW_153_3296 VGND VPWR sky130_fd_sc_hd__tapvpwrvgnd_1
XFILLER_0_134_772 VGND VGND VPWR VPWR sky130_fd_sc_hd__decap_3
XFILLER_0_122_923 VGND VGND VPWR VPWR sky130_fd_sc_hd__fill_1
XANTENNA__7884__A1 _3282_ VGND VGND VPWR VPWR sky130_fd_sc_hd__diode_2
XFILLER_0_133_293 VPWR VGND VPWR VGND sky130_ef_sc_hd__decap_12
XTAP_TAPCELL_ROW_114_2557 VGND VPWR sky130_fd_sc_hd__tapvpwrvgnd_1
XANTENNA__4242__S0 _1145_ VGND VGND VPWR VPWR sky130_fd_sc_hd__diode_2
XFILLER_0_32_781 VPWR VGND VPWR VGND sky130_ef_sc_hd__decap_12
XTAP_TAPCELL_ROW_114_2568 VGND VPWR sky130_fd_sc_hd__tapvpwrvgnd_1
XFILLER_0_122_978 VGND VGND VPWR VPWR sky130_fd_sc_hd__fill_2
XFILLER_0_43_1021 VGND VGND VPWR VPWR sky130_fd_sc_hd__decap_8
XANTENNA__6300__A net5 VGND VGND VPWR VPWR sky130_fd_sc_hd__diode_2
XFILLER_0_107_1077 VGND VGND VPWR VPWR sky130_fd_sc_hd__fill_2
XTAP_TAPCELL_ROW_131_2882 VGND VPWR sky130_fd_sc_hd__tapvpwrvgnd_1
XTAP_TAPCELL_ROW_131_2893 VGND VPWR sky130_fd_sc_hd__tapvpwrvgnd_1
XFILLER_0_43_1054 VGND VGND VPWR VPWR sky130_fd_sc_hd__fill_2
XFILLER_0_43_1065 VGND VGND VPWR VPWR sky130_fd_sc_hd__fill_2
XANTENNA__7830__S _3862_ VGND VGND VPWR VPWR sky130_fd_sc_hd__diode_2
XFILLER_0_177_1009 VGND VGND VPWR VPWR sky130_fd_sc_hd__fill_2
XFILLER_0_3_39 VPWR VGND VPWR VGND sky130_ef_sc_hd__decap_12
XANTENNA__6446__S _3118_ VGND VGND VPWR VPWR sky130_fd_sc_hd__diode_2
XANTENNA__4755__A _1655_ VGND VGND VPWR VPWR sky130_fd_sc_hd__diode_2
XFILLER_0_155_49 VGND VGND VPWR VPWR sky130_fd_sc_hd__decap_6
XANTENNA__5350__S _2259_ VGND VGND VPWR VPWR sky130_fd_sc_hd__diode_2
XANTENNA__7131__A _3479_ VGND VGND VPWR VPWR sky130_fd_sc_hd__diode_2
XANTENNA__6072__A0 _2836_ VGND VGND VPWR VPWR sky130_fd_sc_hd__diode_2
X_4960_ _1887_ _1888_ _1841_ VGND VGND VPWR VPWR _1889_ sky130_fd_sc_hd__mux2_1
XFILLER_0_171_15 VPWR VGND VPWR VGND sky130_ef_sc_hd__decap_12
XFILLER_0_175_105 VGND VGND VPWR VPWR sky130_fd_sc_hd__decap_6
XFILLER_0_147_3 VPWR VGND VPWR VGND sky130_ef_sc_hd__decap_12
XFILLER_0_58_133 VGND VGND VPWR VPWR sky130_fd_sc_hd__decap_3
XFILLER_0_86_442 VGND VGND VPWR VPWR sky130_fd_sc_hd__decap_3
XFILLER_0_87_965 VGND VGND VPWR VPWR sky130_fd_sc_hd__fill_1
XFILLER_0_114_1037 VGND VGND VPWR VPWR sky130_fd_sc_hd__fill_2
XTAP_TAPCELL_ROW_177_3753 VGND VPWR sky130_fd_sc_hd__tapvpwrvgnd_1
XTAP_TAPCELL_ROW_177_3764 VGND VPWR sky130_fd_sc_hd__tapvpwrvgnd_1
XFILLER_0_87_987 VGND VGND VPWR VPWR sky130_fd_sc_hd__fill_2
X_4891_ _1646_ _1820_ _1824_ _1711_ VGND VGND VPWR VPWR _1825_ sky130_fd_sc_hd__a211o_1
XFILLER_0_175_149 VPWR VGND VPWR VGND sky130_ef_sc_hd__decap_12
X_6630_ net26 VGND VGND VPWR VPWR _3220_ sky130_fd_sc_hd__clkbuf_4
XANTENNA__6181__S _2968_ VGND VGND VPWR VPWR sky130_fd_sc_hd__diode_2
XFILLER_0_74_637 VGND VGND VPWR VPWR sky130_fd_sc_hd__decap_6
XFILLER_0_157_875 VGND VGND VPWR VPWR sky130_fd_sc_hd__fill_2
XFILLER_0_13_40 VGND VGND VPWR VPWR sky130_fd_sc_hd__decap_3
XFILLER_0_11_1009 VPWR VGND VPWR VGND sky130_ef_sc_hd__decap_12
XANTENNA__7572__A0 _2846_ VGND VGND VPWR VPWR sky130_fd_sc_hd__diode_2
XFILLER_0_73_125 VPWR VGND VPWR VGND sky130_ef_sc_hd__decap_12
XFILLER_0_104_53 VPWR VGND VPWR VGND sky130_ef_sc_hd__decap_12
XFILLER_0_156_363 VGND VGND VPWR VPWR sky130_fd_sc_hd__fill_1
XFILLER_0_172_823 VGND VGND VPWR VPWR sky130_fd_sc_hd__fill_2
XTAP_TAPCELL_ROW_15_673 VGND VPWR sky130_fd_sc_hd__tapvpwrvgnd_1
XFILLER_0_39_391 VGND VGND VPWR VPWR sky130_fd_sc_hd__fill_1
XTAP_TAPCELL_ROW_15_684 VGND VPWR sky130_fd_sc_hd__tapvpwrvgnd_1
XFILLER_0_144_525 VGND VGND VPWR VPWR sky130_fd_sc_hd__decap_6
XFILLER_0_27_553 VGND VGND VPWR VPWR sky130_fd_sc_hd__decap_6
X_6561_ net797 _2817_ _3177_ VGND VGND VPWR VPWR _3183_ sky130_fd_sc_hd__mux2_1
XFILLER_0_61_309 VPWR VGND VPWR VGND sky130_ef_sc_hd__decap_12
XFILLER_0_73_169 VPWR VGND VPWR VGND sky130_ef_sc_hd__decap_12
XFILLER_0_104_97 VPWR VGND VPWR VGND sky130_ef_sc_hd__decap_12
XFILLER_0_183_193 VGND VGND VPWR VPWR sky130_fd_sc_hd__decap_3
XFILLER_0_42_501 VPWR VGND VPWR VGND sky130_ef_sc_hd__decap_12
XFILLER_0_132_709 VGND VGND VPWR VPWR sky130_fd_sc_hd__decap_3
XFILLER_0_55_895 VGND VGND VPWR VPWR sky130_fd_sc_hd__fill_1