*SPEF "ieee 1481-1999"
*DESIGN "semi_cpu_top"
*DATE "09:22:52 Sunday June 08, 2025"
*VENDOR "The OpenROAD Project"
*PROGRAM "OpenROAD"
*VERSION "b16bda7e82721d10566ff7e2b68f1ff0be9f9e38"
*DESIGN_FLOW "NAME_SCOPE LOCAL" "PIN_CAP NONE"
*DIVIDER /
*DELIMITER :
*BUS_DELIMITER []
*T_UNIT 1 NS
*C_UNIT 1 PF
*R_UNIT 1 OHM
*L_UNIT 1 HENRY

*NAME_MAP
*1 Result[0]
*2 Result[10]
*3 Result[11]
*4 Result[12]
*5 Result[13]
*6 Result[14]
*7 Result[15]
*8 Result[16]
*9 Result[17]
*10 Result[18]
*11 Result[19]
*12 Result[1]
*13 Result[20]
*14 Result[21]
*15 Result[22]
*16 Result[23]
*17 Result[24]
*18 Result[25]
*19 Result[26]
*20 Result[27]
*21 Result[28]
*22 Result[29]
*23 Result[2]
*24 Result[30]
*25 Result[31]
*26 Result[3]
*27 Result[4]
*28 Result[5]
*29 Result[6]
*30 Result[7]
*31 Result[8]
*32 Result[9]
*35 alu_op_tb[0]
*36 alu_op_tb[1]
*37 alu_op_tb[2]
*38 an[0]
*39 an[1]
*40 an[2]
*41 an[3]
*42 clk
*43 control
*44 immediate_tb[0]
*45 net149
*46 net150
*47 net151
*48 net152
*49 immediate_tb[14]
*50 immediate_tb[15]
*51 net181
*52 net179
*53 net153
*54 net154
*55 immediate_tb[1]
*56 net155
*57 net156
*58 net157
*59 net158
*60 net159
*61 net160
*62 net161
*63 net162
*64 net163
*65 net164
*66 immediate_tb[2]
*67 net165
*68 net166
*69 immediate_tb[3]
*70 net143
*71 net144
*72 net145
*73 net146
*74 net147
*75 net148
*76 instruction_tb[0]
*77 net173
*78 net174
*79 net175
*80 net176
*81 instruction_tb[14]
*82 instruction_tb[15]
*83 instruction_tb[16]
*84 instruction_tb[17]
*85 net177
*86 instruction_tb[19]
*87 instruction_tb[1]
*88 instruction_tb[20]
*89 net178
*90 instruction_tb[22]
*91 instruction_tb[23]
*92 instruction_tb[24]
*93 instruction_tb[25]
*94 instruction_tb[26]
*95 instruction_tb[27]
*96 instruction_tb[28]
*97 instruction_tb[29]
*98 instruction_tb[2]
*99 instruction_tb[30]
*100 instruction_tb[31]
*101 instruction_tb[3]
*102 net167
*103 net168
*104 net169
*105 net170
*106 net171
*107 net172
*108 pc_out_tb[0]
*109 pc_out_tb[1]
*110 pc_out_tb[2]
*111 rd1_tb[0]
*112 rd1_tb[10]
*113 rd1_tb[11]
*114 rd1_tb[12]
*115 rd1_tb[13]
*116 rd1_tb[14]
*117 rd1_tb[15]
*118 rd1_tb[16]
*119 rd1_tb[17]
*120 rd1_tb[18]
*121 rd1_tb[19]
*122 rd1_tb[1]
*123 rd1_tb[20]
*124 rd1_tb[21]
*125 rd1_tb[22]
*126 rd1_tb[23]
*127 rd1_tb[24]
*128 rd1_tb[25]
*129 rd1_tb[26]
*130 rd1_tb[27]
*131 rd1_tb[28]
*132 rd1_tb[29]
*133 rd1_tb[2]
*134 rd1_tb[30]
*135 rd1_tb[31]
*136 rd1_tb[3]
*137 rd1_tb[4]
*138 rd1_tb[5]
*139 rd1_tb[6]
*140 rd1_tb[7]
*141 rd1_tb[8]
*142 rd1_tb[9]
*143 rd2_tb[0]
*144 rd2_tb[10]
*145 rd2_tb[11]
*146 rd2_tb[12]
*147 rd2_tb[13]
*148 rd2_tb[14]
*149 rd2_tb[15]
*150 rd2_tb[16]
*151 rd2_tb[17]
*152 rd2_tb[18]
*153 rd2_tb[19]
*154 rd2_tb[1]
*155 rd2_tb[20]
*156 rd2_tb[21]
*157 rd2_tb[22]
*158 rd2_tb[23]
*159 rd2_tb[24]
*160 rd2_tb[25]
*161 rd2_tb[26]
*162 rd2_tb[27]
*163 rd2_tb[28]
*164 rd2_tb[29]
*165 rd2_tb[2]
*166 rd2_tb[30]
*167 rd2_tb[31]
*168 rd2_tb[3]
*169 rd2_tb[4]
*170 rd2_tb[5]
*171 rd2_tb[6]
*172 rd2_tb[7]
*173 rd2_tb[8]
*174 rd2_tb[9]
*175 rst
*176 seg[0]
*177 seg[1]
*178 seg[2]
*179 seg[3]
*180 seg[4]
*181 seg[5]
*182 seg[6]
*183 _0000_
*184 _0001_
*185 _0002_
*186 _0003_
*187 _0004_
*188 _0005_
*189 _0006_
*190 _0007_
*191 _0008_
*192 _0009_
*193 _0010_
*194 _0011_
*195 _0012_
*196 _0013_
*197 _0014_
*198 _0015_
*199 _0016_
*200 _0017_
*201 _0018_
*202 _0019_
*203 _0020_
*204 _0021_
*205 _0022_
*206 _0023_
*207 _0024_
*208 _0025_
*209 _0026_
*210 _0027_
*211 _0028_
*212 _0029_
*213 _0030_
*214 _0031_
*215 _0032_
*216 _0033_
*217 _0034_
*218 _0035_
*219 _0036_
*220 _0037_
*221 _0038_
*222 _0039_
*223 _0040_
*224 _0041_
*225 _0042_
*226 _0043_
*227 _0044_
*228 _0045_
*229 _0046_
*230 _0047_
*231 _0048_
*232 _0049_
*233 _0050_
*234 _0051_
*235 _0052_
*236 _0053_
*237 _0054_
*238 _0055_
*239 _0056_
*240 _0057_
*241 _0058_
*242 _0059_
*243 _0060_
*244 _0061_
*245 _0062_
*246 _0063_
*247 _0064_
*248 _0065_
*249 _0066_
*250 _0067_
*251 _0068_
*252 _0069_
*253 _0070_
*254 _0071_
*255 _0072_
*256 _0073_
*257 _0074_
*258 _0075_
*259 _0076_
*260 _0077_
*261 _0078_
*262 _0079_
*263 _0080_
*264 _0081_
*265 _0082_
*266 _0083_
*267 _0084_
*268 _0085_
*269 _0086_
*270 _0087_
*271 _0088_
*272 _0089_
*273 _0090_
*274 _0091_
*275 _0092_
*276 _0093_
*277 _0094_
*278 _0095_
*279 _0096_
*280 _0097_
*281 _0098_
*282 _0099_
*283 _0100_
*284 _0101_
*285 _0102_
*286 _0103_
*287 _0104_
*288 _0105_
*289 _0106_
*290 _0107_
*291 _0108_
*292 _0109_
*293 _0110_
*294 _0111_
*295 _0112_
*296 _0113_
*297 _0114_
*298 _0115_
*299 _0116_
*300 _0117_
*301 _0118_
*302 _0119_
*303 _0120_
*304 _0121_
*305 _0122_
*306 _0123_
*307 _0124_
*308 _0125_
*309 _0126_
*310 _0127_
*311 _0128_
*312 _0129_
*313 _0130_
*314 _0131_
*315 _0132_
*316 _0133_
*317 _0134_
*318 _0135_
*319 _0136_
*320 _0137_
*321 _0138_
*322 _0139_
*323 _0140_
*324 _0141_
*325 _0142_
*326 _0143_
*327 _0144_
*328 _0145_
*329 _0146_
*330 _0147_
*331 _0148_
*332 _0149_
*333 _0150_
*334 _0151_
*335 _0152_
*336 _0153_
*337 _0154_
*338 _0155_
*339 _0156_
*340 _0157_
*341 _0158_
*342 _0159_
*343 _0160_
*344 _0161_
*345 _0162_
*346 _0163_
*347 _0164_
*348 _0165_
*349 _0166_
*350 _0167_
*351 _0168_
*352 _0169_
*353 _0170_
*354 _0171_
*355 _0172_
*356 _0173_
*357 _0174_
*358 _0175_
*359 _0176_
*360 _0177_
*361 _0178_
*362 _0179_
*363 _0180_
*364 _0181_
*365 _0182_
*366 _0183_
*367 _0184_
*368 _0185_
*369 _0186_
*370 _0187_
*371 _0188_
*372 _0189_
*373 _0190_
*374 _0191_
*375 _0192_
*376 _0193_
*377 _0194_
*378 _0195_
*379 _0196_
*380 _0197_
*381 _0198_
*382 _0199_
*383 _0200_
*384 _0201_
*385 _0202_
*386 _0203_
*387 _0204_
*388 _0205_
*389 _0206_
*390 _0207_
*391 _0208_
*392 _0209_
*393 _0210_
*394 _0211_
*395 _0212_
*396 _0213_
*397 _0214_
*398 _0215_
*399 _0216_
*400 _0217_
*401 _0218_
*402 _0219_
*403 _0220_
*404 _0221_
*405 _0222_
*406 _0223_
*407 _0224_
*408 _0225_
*409 _0226_
*410 _0227_
*411 _0228_
*412 _0229_
*413 _0230_
*414 _0231_
*415 _0232_
*416 _0233_
*417 _0234_
*418 _0235_
*419 _0236_
*420 _0237_
*421 _0238_
*422 _0239_
*423 _0240_
*424 _0241_
*425 _0242_
*426 _0243_
*427 _0244_
*428 _0245_
*429 _0246_
*430 _0247_
*431 _0248_
*432 _0249_
*433 _0250_
*434 _0251_
*435 _0252_
*436 _0253_
*437 _0254_
*438 _0255_
*439 _0256_
*440 _0257_
*441 _0258_
*442 _0259_
*443 _0260_
*444 _0261_
*445 _0262_
*446 _0263_
*447 _0264_
*448 _0265_
*449 _0266_
*450 _0267_
*451 _0268_
*452 _0269_
*453 _0270_
*454 _0271_
*455 _0272_
*456 _0273_
*457 _0274_
*458 _0275_
*459 _0276_
*460 _0277_
*461 _0278_
*462 _0279_
*463 _0280_
*464 _0281_
*465 _0282_
*466 _0283_
*467 _0284_
*468 _0285_
*469 _0286_
*470 _0287_
*471 _0288_
*472 _0289_
*473 _0290_
*474 _0291_
*475 _0292_
*476 _0293_
*477 _0294_
*478 _0295_
*479 _0296_
*480 _0297_
*481 _0298_
*482 _0299_
*483 _0300_
*484 _0301_
*485 _0302_
*486 _0303_
*487 _0304_
*488 _0305_
*489 _0306_
*490 _0307_
*491 _0308_
*492 _0309_
*493 _0310_
*494 _0311_
*495 _0312_
*496 _0313_
*497 _0314_
*498 _0315_
*499 _0316_
*500 _0317_
*501 _0318_
*502 _0319_
*503 _0320_
*504 _0321_
*505 _0322_
*506 _0323_
*507 _0324_
*508 _0325_
*509 _0326_
*510 _0327_
*511 _0328_
*512 _0329_
*513 _0330_
*514 _0331_
*515 _0332_
*516 _0333_
*517 _0334_
*518 _0335_
*519 _0336_
*520 _0337_
*521 _0338_
*522 _0339_
*523 _0340_
*524 _0341_
*525 _0342_
*526 _0343_
*527 _0344_
*528 _0345_
*529 _0346_
*530 _0347_
*531 _0348_
*532 _0349_
*533 _0350_
*534 _0351_
*535 _0352_
*536 _0353_
*537 _0354_
*538 _0355_
*539 _0356_
*540 _0357_
*541 _0358_
*542 _0359_
*543 _0360_
*544 _0361_
*545 _0362_
*546 _0363_
*547 _0364_
*548 _0365_
*549 _0366_
*550 _0367_
*551 _0368_
*552 _0369_
*553 _0370_
*554 _0371_
*555 _0372_
*556 _0373_
*557 _0374_
*558 _0375_
*559 _0376_
*560 _0377_
*561 _0378_
*562 _0379_
*563 _0380_
*564 _0381_
*565 _0382_
*566 _0383_
*567 _0384_
*568 _0385_
*569 _0386_
*570 _0387_
*571 _0388_
*572 _0389_
*573 _0390_
*574 _0391_
*575 _0392_
*576 _0393_
*577 _0394_
*578 _0395_
*579 _0396_
*580 _0397_
*581 _0398_
*582 _0399_
*583 _0400_
*584 _0401_
*585 _0402_
*586 _0403_
*587 _0404_
*588 _0405_
*589 _0406_
*590 _0407_
*591 _0408_
*592 _0409_
*593 _0410_
*594 _0411_
*595 _0412_
*596 _0413_
*597 _0414_
*598 _0415_
*599 _0416_
*600 _0417_
*601 _0418_
*602 _0419_
*603 _0420_
*604 _0421_
*605 _0422_
*606 _0423_
*607 _0424_
*608 _0425_
*609 _0426_
*610 _0427_
*611 _0428_
*612 _0429_
*613 _0430_
*614 _0431_
*615 _0432_
*616 _0433_
*617 _0434_
*618 _0435_
*619 _0436_
*620 _0437_
*621 _0438_
*622 _0439_
*623 _0440_
*624 _0441_
*625 _0442_
*626 _0443_
*627 _0444_
*628 _0445_
*629 _0446_
*630 _0447_
*631 _0448_
*632 _0449_
*633 _0450_
*634 _0451_
*635 _0452_
*636 _0453_
*637 _0454_
*638 _0455_
*639 _0456_
*640 _0457_
*641 _0458_
*642 _0459_
*643 _0460_
*644 _0461_
*645 _0462_
*646 _0463_
*647 _0464_
*648 _0465_
*649 _0466_
*650 _0467_
*651 _0468_
*652 _0469_
*653 _0470_
*654 _0471_
*655 _0472_
*656 _0473_
*657 _0474_
*658 _0475_
*659 _0476_
*660 _0477_
*661 _0478_
*662 _0479_
*663 _0480_
*664 _0481_
*665 _0482_
*666 _0483_
*667 _0484_
*668 _0485_
*669 _0486_
*670 _0487_
*671 _0488_
*672 _0489_
*673 _0490_
*674 _0491_
*675 _0492_
*676 _0493_
*677 _0494_
*678 _0495_
*679 _0496_
*680 _0497_
*681 _0498_
*682 _0499_
*683 _0500_
*684 _0501_
*685 _0502_
*686 _0503_
*687 _0504_
*688 _0505_
*689 _0506_
*690 _0507_
*691 _0508_
*692 _0509_
*693 _0510_
*694 _0511_
*695 _0512_
*696 _0513_
*697 _0514_
*698 _0515_
*699 _0516_
*700 _0517_
*701 _0518_
*702 _0519_
*703 _0520_
*704 _0521_
*705 _0522_
*706 _0523_
*707 _0524_
*708 _0525_
*709 _0526_
*710 _0527_
*711 _0528_
*712 _0529_
*713 _0530_
*714 _0531_
*715 _0532_
*716 _0533_
*717 _0534_
*718 _0535_
*719 _0536_
*720 _0537_
*721 _0538_
*722 _0539_
*723 _0540_
*724 _0541_
*725 _0542_
*726 _0543_
*727 _0544_
*728 _0545_
*729 _0546_
*730 _0547_
*731 _0548_
*732 _0549_
*733 _0550_
*734 _0551_
*735 _0552_
*736 _0553_
*737 _0554_
*738 _0555_
*739 _0556_
*740 _0557_
*741 _0558_
*742 _0559_
*743 _0560_
*744 _0561_
*745 _0562_
*746 _0563_
*747 _0564_
*748 _0565_
*749 _0566_
*750 _0567_
*751 _0568_
*752 _0569_
*753 _0570_
*754 _0571_
*755 _0572_
*756 _0573_
*757 _0574_
*758 _0575_
*759 _0576_
*760 _0577_
*761 _0578_
*762 _0579_
*763 _0580_
*764 _0581_
*765 _0582_
*766 _0583_
*767 _0584_
*768 _0585_
*769 _0586_
*770 _0587_
*771 _0588_
*772 _0589_
*773 _0590_
*774 _0591_
*775 _0592_
*776 _0593_
*777 _0594_
*778 _0595_
*779 _0596_
*780 _0597_
*781 _0598_
*782 _0599_
*783 _0600_
*784 _0601_
*785 _0602_
*786 _0603_
*787 _0604_
*788 _0605_
*789 _0606_
*790 _0607_
*791 _0608_
*792 _0609_
*793 _0610_
*794 _0611_
*795 _0612_
*796 _0613_
*797 _0614_
*798 _0615_
*799 _0616_
*800 _0617_
*801 _0618_
*802 _0619_
*803 _0620_
*804 _0621_
*805 _0622_
*806 _0623_
*807 _0624_
*808 _0625_
*809 _0626_
*810 _0627_
*811 _0628_
*812 _0629_
*813 _0630_
*814 _0631_
*815 _0632_
*816 _0633_
*817 _0634_
*818 _0635_
*819 _0636_
*820 _0637_
*821 _0638_
*822 _0639_
*823 _0640_
*824 _0641_
*825 _0642_
*826 _0643_
*827 _0644_
*828 _0645_
*829 _0646_
*830 _0647_
*831 _0648_
*832 _0649_
*833 _0650_
*834 _0651_
*835 _0652_
*836 _0653_
*837 _0654_
*838 _0655_
*839 _0656_
*840 _0657_
*841 _0658_
*842 _0659_
*843 _0660_
*844 _0661_
*845 _0662_
*846 _0663_
*847 _0664_
*848 _0665_
*849 _0666_
*850 _0667_
*851 _0668_
*852 _0669_
*853 _0670_
*854 _0671_
*855 _0672_
*856 _0673_
*857 _0674_
*858 _0675_
*859 _0676_
*860 _0677_
*861 _0678_
*862 _0679_
*863 _0680_
*864 _0681_
*865 _0682_
*866 _0683_
*867 _0684_
*868 _0685_
*869 _0686_
*870 _0687_
*871 _0688_
*872 _0689_
*873 _0690_
*874 _0691_
*875 _0692_
*876 _0693_
*877 _0694_
*878 _0695_
*879 _0696_
*880 _0697_
*881 _0698_
*882 _0699_
*883 _0700_
*884 _0701_
*885 _0702_
*886 _0703_
*887 _0704_
*888 _0705_
*889 _0706_
*890 _0707_
*891 _0708_
*892 _0709_
*893 _0710_
*894 _0711_
*895 _0712_
*896 _0713_
*897 _0714_
*898 _0715_
*899 _0716_
*900 _0717_
*901 _0718_
*902 _0719_
*903 _0720_
*904 _0721_
*905 _0722_
*906 _0723_
*907 _0724_
*908 _0725_
*909 _0726_
*910 _0727_
*911 _0728_
*912 _0729_
*913 _0730_
*914 _0731_
*915 _0732_
*916 _0733_
*917 _0734_
*918 _0735_
*919 _0736_
*920 _0737_
*921 _0738_
*922 _0739_
*923 _0740_
*924 _0741_
*925 _0742_
*926 _0743_
*927 _0744_
*928 _0745_
*929 _0746_
*930 _0747_
*931 _0748_
*932 _0749_
*933 _0750_
*934 _0751_
*935 _0752_
*936 _0753_
*937 _0754_
*938 _0755_
*939 _0756_
*940 _0757_
*941 _0758_
*942 _0759_
*943 _0760_
*944 _0761_
*945 _0762_
*946 _0763_
*947 _0764_
*948 _0765_
*949 _0766_
*950 _0767_
*951 _0768_
*952 _0769_
*953 _0770_
*954 _0771_
*955 _0772_
*956 _0773_
*957 _0774_
*958 _0775_
*959 _0776_
*960 _0777_
*961 _0778_
*962 _0779_
*963 _0780_
*964 _0781_
*965 _0782_
*966 _0783_
*967 _0784_
*968 _0785_
*969 _0786_
*970 _0787_
*971 _0788_
*972 _0789_
*973 _0790_
*974 _0791_
*975 _0792_
*976 _0793_
*977 _0794_
*978 _0795_
*979 _0796_
*980 _0797_
*981 _0798_
*982 _0799_
*983 _0800_
*984 _0801_
*985 _0802_
*986 _0803_
*987 _0804_
*988 _0805_
*989 _0806_
*990 _0807_
*991 _0808_
*992 _0809_
*993 _0810_
*994 _0811_
*995 _0812_
*996 _0813_
*997 _0814_
*998 _0815_
*999 _0816_
*1000 _0817_
*1001 _0818_
*1002 _0819_
*1003 _0820_
*1004 _0821_
*1005 _0822_
*1006 _0823_
*1007 _0824_
*1008 _0825_
*1009 _0826_
*1010 _0827_
*1011 _0828_
*1012 _0829_
*1013 _0830_
*1014 _0831_
*1015 _0832_
*1016 _0833_
*1017 _0834_
*1018 _0835_
*1019 _0836_
*1020 _0837_
*1021 _0838_
*1022 _0839_
*1023 _0840_
*1024 _0841_
*1025 _0842_
*1026 _0843_
*1027 _0844_
*1028 _0845_
*1029 _0846_
*1030 _0847_
*1031 _0848_
*1032 _0849_
*1033 _0850_
*1034 _0851_
*1035 _0852_
*1036 _0853_
*1037 _0854_
*1038 _0855_
*1039 _0856_
*1040 _0857_
*1041 _0858_
*1042 _0859_
*1043 _0860_
*1044 _0861_
*1045 _0862_
*1046 _0863_
*1047 _0864_
*1048 _0865_
*1049 _0866_
*1050 _0867_
*1051 _0868_
*1052 _0869_
*1053 _0870_
*1054 _0871_
*1055 _0872_
*1056 _0873_
*1057 _0874_
*1058 _0875_
*1059 _0876_
*1060 _0877_
*1061 _0878_
*1062 _0879_
*1063 _0880_
*1064 _0881_
*1065 _0882_
*1066 _0883_
*1067 _0884_
*1068 _0885_
*1069 _0886_
*1070 _0887_
*1071 _0888_
*1072 _0889_
*1073 _0890_
*1074 _0891_
*1075 _0892_
*1076 _0893_
*1077 _0894_
*1078 _0895_
*1079 _0896_
*1080 _0897_
*1081 _0898_
*1082 _0899_
*1083 _0900_
*1084 _0901_
*1085 _0902_
*1086 _0903_
*1087 _0904_
*1088 _0905_
*1089 _0906_
*1090 _0907_
*1091 _0908_
*1092 _0909_
*1093 _0910_
*1094 _0911_
*1095 _0912_
*1096 _0913_
*1097 _0914_
*1098 _0915_
*1099 _0916_
*1100 _0917_
*1101 _0918_
*1102 _0919_
*1103 _0920_
*1104 _0921_
*1105 _0922_
*1106 _0923_
*1107 _0924_
*1108 _0925_
*1109 _0926_
*1110 _0927_
*1111 _0928_
*1112 _0929_
*1113 _0930_
*1114 _0931_
*1115 _0932_
*1116 _0933_
*1117 _0934_
*1118 _0935_
*1119 _0936_
*1120 _0937_
*1121 _0938_
*1122 _0939_
*1123 _0940_
*1124 _0941_
*1125 _0942_
*1126 _0943_
*1127 _0944_
*1128 _0945_
*1129 _0946_
*1130 _0947_
*1131 _0948_
*1132 _0949_
*1133 _0950_
*1134 _0951_
*1135 _0952_
*1136 _0953_
*1137 _0954_
*1138 _0955_
*1139 _0956_
*1140 _0957_
*1141 _0958_
*1142 _0959_
*1143 _0960_
*1144 _0961_
*1145 _0962_
*1146 _0963_
*1147 _0964_
*1148 _0965_
*1149 _0966_
*1150 _0967_
*1151 _0968_
*1152 _0969_
*1153 _0970_
*1154 _0971_
*1155 _0972_
*1156 _0973_
*1157 _0974_
*1158 _0975_
*1159 _0976_
*1160 _0977_
*1161 _0978_
*1162 _0979_
*1163 _0980_
*1164 _0981_
*1165 _0982_
*1166 _0983_
*1167 _0984_
*1168 _0985_
*1169 _0986_
*1170 _0987_
*1171 _0988_
*1172 _0989_
*1173 _0990_
*1174 _0991_
*1175 _0992_
*1176 _0993_
*1177 _0994_
*1178 _0995_
*1179 _0996_
*1180 _0997_
*1181 _0998_
*1182 _0999_
*1183 _1000_
*1184 _1001_
*1185 _1002_
*1186 _1003_
*1187 _1004_
*1188 _1005_
*1189 _1006_
*1190 _1007_
*1191 _1008_
*1192 _1009_
*1193 _1010_
*1194 _1011_
*1195 _1012_
*1196 _1013_
*1197 _1014_
*1198 _1015_
*1199 _1016_
*1200 _1017_
*1201 _1018_
*1202 _1019_
*1203 _1020_
*1204 _1021_
*1205 _1022_
*1206 _1023_
*1207 _1024_
*1208 _1025_
*1209 _1026_
*1210 _1027_
*1211 _1028_
*1212 _1029_
*1213 _1030_
*1214 _1031_
*1215 _1032_
*1216 _1033_
*1217 _1034_
*1218 _1035_
*1219 _1036_
*1220 _1037_
*1221 _1038_
*1222 _1039_
*1223 _1040_
*1224 _1041_
*1225 _1042_
*1226 _1043_
*1227 _1044_
*1228 _1045_
*1229 _1046_
*1230 _1047_
*1231 _1048_
*1232 _1049_
*1233 _1050_
*1234 _1051_
*1235 _1052_
*1236 _1053_
*1237 _1054_
*1238 _1055_
*1239 _1056_
*1240 _1057_
*1241 _1058_
*1242 _1059_
*1243 _1060_
*1244 _1061_
*1245 _1062_
*1246 _1063_
*1247 _1064_
*1248 _1065_
*1249 _1066_
*1250 _1067_
*1251 _1068_
*1252 _1069_
*1253 _1070_
*1254 _1071_
*1255 _1072_
*1256 _1073_
*1257 _1074_
*1258 _1075_
*1259 _1076_
*1260 _1077_
*1261 _1078_
*1262 _1079_
*1263 _1080_
*1264 _1081_
*1265 _1082_
*1266 _1083_
*1267 _1084_
*1268 _1085_
*1269 _1086_
*1270 _1087_
*1271 _1088_
*1272 _1089_
*1273 _1090_
*1274 _1091_
*1275 _1092_
*1276 _1093_
*1277 _1094_
*1278 _1095_
*1279 _1096_
*1280 _1097_
*1281 _1098_
*1282 _1099_
*1283 _1100_
*1284 _1101_
*1285 _1102_
*1286 _1103_
*1287 _1104_
*1288 _1105_
*1289 _1106_
*1290 _1107_
*1291 _1108_
*1292 _1109_
*1293 _1110_
*1294 _1111_
*1295 _1112_
*1296 _1113_
*1297 _1114_
*1298 _1115_
*1299 _1116_
*1300 _1117_
*1301 _1118_
*1302 _1119_
*1303 _1120_
*1304 _1121_
*1305 _1122_
*1306 _1123_
*1307 _1124_
*1308 _1125_
*1309 _1126_
*1310 _1127_
*1311 _1128_
*1312 _1129_
*1313 _1130_
*1314 _1131_
*1315 _1132_
*1316 _1133_
*1317 _1134_
*1318 _1135_
*1319 _1136_
*1320 _1137_
*1321 _1138_
*1322 _1139_
*1323 _1140_
*1324 _1141_
*1325 _1142_
*1326 _1143_
*1327 _1144_
*1328 _1145_
*1329 _1146_
*1330 _1147_
*1331 _1148_
*1332 _1149_
*1333 _1150_
*1334 _1151_
*1335 _1152_
*1336 _1153_
*1337 _1154_
*1338 _1155_
*1339 _1156_
*1340 _1157_
*1341 _1158_
*1342 _1159_
*1343 _1160_
*1344 _1161_
*1345 _1162_
*1346 _1163_
*1347 _1164_
*1348 _1165_
*1349 _1166_
*1350 _1167_
*1351 _1168_
*1352 _1169_
*1353 _1170_
*1354 _1171_
*1355 _1172_
*1356 _1173_
*1357 _1174_
*1358 _1175_
*1359 _1176_
*1360 _1177_
*1361 _1178_
*1362 _1179_
*1363 _1180_
*1364 _1181_
*1365 _1182_
*1366 _1183_
*1367 _1184_
*1368 _1185_
*1369 _1186_
*1370 _1187_
*1371 _1188_
*1372 _1189_
*1373 _1190_
*1374 _1191_
*1375 _1192_
*1376 _1193_
*1377 _1194_
*1378 _1195_
*1379 _1196_
*1380 _1197_
*1381 _1198_
*1382 _1199_
*1383 _1200_
*1384 _1201_
*1385 _1202_
*1386 _1203_
*1387 _1204_
*1388 _1205_
*1389 _1206_
*1390 _1207_
*1391 _1208_
*1392 _1209_
*1393 _1210_
*1394 _1211_
*1395 _1212_
*1396 _1213_
*1397 _1214_
*1398 _1215_
*1399 _1216_
*1400 _1217_
*1401 _1218_
*1402 _1219_
*1403 _1220_
*1404 _1221_
*1405 _1222_
*1406 _1223_
*1407 _1224_
*1408 _1225_
*1409 _1226_
*1410 _1227_
*1411 _1228_
*1412 _1229_
*1413 _1230_
*1414 _1231_
*1415 _1232_
*1416 _1233_
*1417 _1234_
*1418 _1235_
*1419 _1236_
*1420 _1237_
*1421 _1238_
*1422 _1239_
*1423 _1240_
*1424 _1241_
*1425 _1242_
*1426 _1243_
*1427 _1244_
*1428 _1245_
*1429 _1246_
*1430 _1247_
*1431 _1248_
*1432 _1249_
*1433 _1250_
*1434 _1251_
*1435 _1252_
*1436 _1253_
*1437 _1254_
*1438 _1255_
*1439 _1256_
*1440 _1257_
*1441 _1258_
*1442 _1259_
*1443 _1260_
*1444 _1261_
*1445 _1262_
*1446 _1263_
*1447 _1264_
*1448 _1265_
*1449 _1266_
*1450 _1267_
*1451 _1268_
*1452 _1269_
*1453 _1270_
*1454 _1271_
*1455 _1272_
*1456 _1273_
*1457 _1274_
*1458 _1275_
*1459 clknet_0_clk
*1460 clknet_4_0_0_clk
*1461 clknet_4_10_0_clk
*1462 clknet_4_11_0_clk
*1463 clknet_4_12_0_clk
*1464 clknet_4_13_0_clk
*1465 clknet_4_14_0_clk
*1466 clknet_4_15_0_clk
*1467 clknet_4_1_0_clk
*1468 clknet_4_2_0_clk
*1469 clknet_4_3_0_clk
*1470 clknet_4_4_0_clk
*1471 clknet_4_5_0_clk
*1472 clknet_4_6_0_clk
*1473 clknet_4_7_0_clk
*1474 clknet_4_8_0_clk
*1475 clknet_4_9_0_clk
*1476 net1
*1477 net10
*1478 net100
*1479 net101
*1480 net102
*1481 net103
*1482 net104
*1483 net105
*1484 net106
*1485 net107
*1486 net108
*1487 net109
*1488 net11
*1489 net110
*1490 net111
*1491 net112
*1492 net113
*1493 net114
*1494 net115
*1495 net116
*1496 net117
*1497 net118
*1498 net119
*1499 net12
*1500 net120
*1501 net121
*1502 net122
*1503 net123
*1504 net124
*1505 net125
*1506 net126
*1507 net127
*1508 net128
*1509 net129
*1510 net13
*1511 net130
*1512 net131
*1513 net132
*1514 net133
*1515 net134
*1516 net135
*1517 net136
*1518 net137
*1519 net138
*1520 net139
*1521 net14
*1522 net140
*1523 net141
*1524 net142
*1525 net15
*1526 net16
*1527 net17
*1528 net18
*1529 net180
*1530 net182
*1531 net183
*1532 net184
*1533 net185
*1534 net186
*1535 net187
*1536 net188
*1537 net189
*1538 net19
*1539 net190
*1540 net191
*1541 net192
*1542 net193
*1543 net194
*1544 net195
*1545 net196
*1546 net197
*1547 net2
*1548 net20
*1549 net206
*1550 net207
*1551 net208
*1552 net209
*1553 net21
*1554 net210
*1555 net211
*1556 net212
*1557 net213
*1558 net214
*1559 net215
*1560 net216
*1561 net217
*1562 net218
*1563 net219
*1564 net22
*1565 net220
*1566 net221
*1567 net222
*1568 net223
*1569 net224
*1570 net225
*1571 net226
*1572 net227
*1573 net228
*1574 net229
*1575 net23
*1576 net230
*1577 net231
*1578 net232
*1579 net233
*1580 net234
*1581 net235
*1582 net236
*1583 net237
*1584 net238
*1585 net239
*1586 net24
*1587 net240
*1588 net241
*1589 net242
*1590 net243
*1591 net244
*1592 net245
*1593 net246
*1594 net247
*1595 net248
*1596 net249
*1597 net25
*1598 net250
*1599 net251
*1600 net252
*1601 net253
*1602 net254
*1603 net255
*1604 net256
*1605 net257
*1606 net258
*1607 net259
*1608 net26
*1609 net260
*1610 net261
*1611 net262
*1612 net263
*1613 net264
*1614 net265
*1615 net266
*1616 net267
*1617 net268
*1618 net269
*1619 net27
*1620 net270
*1621 net271
*1622 net272
*1623 net273
*1624 net274
*1625 net275
*1626 net276
*1627 net277
*1628 net278
*1629 net279
*1630 net28
*1631 net280
*1632 net281
*1633 net282
*1634 net283
*1635 net284
*1636 net285
*1637 net286
*1638 net287
*1639 net288
*1640 net289
*1641 net29
*1642 net290
*1643 net291
*1644 net292
*1645 net293
*1646 net294
*1647 net295
*1648 net296
*1649 net297
*1650 net298
*1651 net299
*1652 net3
*1653 net30
*1654 net300
*1655 net301
*1656 net302
*1657 net303
*1658 net304
*1659 net305
*1660 net306
*1661 net307
*1662 net308
*1663 net309
*1664 net31
*1665 net310
*1666 net311
*1667 net312
*1668 net313
*1669 net314
*1670 net315
*1671 net316
*1672 net317
*1673 net318
*1674 net319
*1675 net32
*1676 net320
*1677 net321
*1678 net322
*1679 net323
*1680 net324
*1681 net325
*1682 net326
*1683 net327
*1684 net328
*1685 net329
*1686 net33
*1687 net330
*1688 net331
*1689 net332
*1690 net333
*1691 net334
*1692 net335
*1693 net336
*1694 net337
*1695 net338
*1696 net339
*1697 net34
*1698 net340
*1699 net35
*1700 net36
*1701 net37
*1702 net38
*1703 net39
*1704 net4
*1705 net40
*1706 net41
*1707 net42
*1708 net43
*1709 net44
*1710 net45
*1711 net46
*1712 net47
*1713 net48
*1714 net49
*1715 net5
*1716 net50
*1717 net51
*1718 net52
*1719 net53
*1720 net54
*1721 net55
*1722 net56
*1723 net57
*1724 net58
*1725 net59
*1726 net6
*1727 net60
*1728 net61
*1729 net62
*1730 net63
*1731 net64
*1732 net65
*1733 net66
*1734 net67
*1735 net68
*1736 net69
*1737 net7
*1738 net70
*1739 net71
*1740 net72
*1741 net73
*1742 net74
*1743 net75
*1744 net76
*1745 net77
*1746 net78
*1747 net79
*1748 net8
*1749 net80
*1750 net81
*1751 net82
*1752 net83
*1753 net84
*1754 net85
*1755 net86
*1756 net87
*1757 net88
*1758 net89
*1759 net9
*1760 net90
*1761 net91
*1762 net92
*1763 net93
*1764 net94
*1765 net95
*1766 net96
*1767 net97
*1768 net98
*1769 net99
*1770 rf\.registers\[10\]\[0\]
*1771 rf\.registers\[10\]\[10\]
*1772 rf\.registers\[10\]\[11\]
*1773 rf\.registers\[10\]\[12\]
*1774 rf\.registers\[10\]\[13\]
*1775 rf\.registers\[10\]\[14\]
*1776 rf\.registers\[10\]\[15\]
*1777 rf\.registers\[10\]\[16\]
*1778 rf\.registers\[10\]\[17\]
*1779 rf\.registers\[10\]\[18\]
*1780 rf\.registers\[10\]\[19\]
*1781 rf\.registers\[10\]\[1\]
*1782 rf\.registers\[10\]\[20\]
*1783 rf\.registers\[10\]\[21\]
*1784 rf\.registers\[10\]\[22\]
*1785 rf\.registers\[10\]\[23\]
*1786 rf\.registers\[10\]\[24\]
*1787 rf\.registers\[10\]\[25\]
*1788 rf\.registers\[10\]\[26\]
*1789 rf\.registers\[10\]\[27\]
*1790 rf\.registers\[10\]\[28\]
*1791 rf\.registers\[10\]\[29\]
*1792 rf\.registers\[10\]\[2\]
*1793 rf\.registers\[10\]\[30\]
*1794 rf\.registers\[10\]\[31\]
*1795 rf\.registers\[10\]\[3\]
*1796 rf\.registers\[10\]\[4\]
*1797 rf\.registers\[10\]\[5\]
*1798 rf\.registers\[10\]\[6\]
*1799 rf\.registers\[10\]\[7\]
*1800 rf\.registers\[10\]\[8\]
*1801 rf\.registers\[10\]\[9\]
*1802 rf\.registers\[15\]\[0\]
*1803 rf\.registers\[15\]\[10\]
*1804 rf\.registers\[15\]\[11\]
*1805 rf\.registers\[15\]\[12\]
*1806 rf\.registers\[15\]\[13\]
*1807 rf\.registers\[15\]\[14\]
*1808 rf\.registers\[15\]\[15\]
*1809 rf\.registers\[15\]\[16\]
*1810 rf\.registers\[15\]\[17\]
*1811 rf\.registers\[15\]\[18\]
*1812 rf\.registers\[15\]\[19\]
*1813 rf\.registers\[15\]\[1\]
*1814 rf\.registers\[15\]\[20\]
*1815 rf\.registers\[15\]\[21\]
*1816 rf\.registers\[15\]\[22\]
*1817 rf\.registers\[15\]\[23\]
*1818 rf\.registers\[15\]\[24\]
*1819 rf\.registers\[15\]\[25\]
*1820 rf\.registers\[15\]\[26\]
*1821 rf\.registers\[15\]\[27\]
*1822 rf\.registers\[15\]\[28\]
*1823 rf\.registers\[15\]\[29\]
*1824 rf\.registers\[15\]\[2\]
*1825 rf\.registers\[15\]\[30\]
*1826 rf\.registers\[15\]\[31\]
*1827 rf\.registers\[15\]\[3\]
*1828 rf\.registers\[15\]\[4\]
*1829 rf\.registers\[15\]\[5\]
*1830 rf\.registers\[15\]\[6\]
*1831 rf\.registers\[15\]\[7\]
*1832 rf\.registers\[15\]\[8\]
*1833 rf\.registers\[15\]\[9\]
*1834 rf\.registers\[25\]\[0\]
*1835 rf\.registers\[25\]\[10\]
*1836 rf\.registers\[25\]\[11\]
*1837 rf\.registers\[25\]\[12\]
*1838 rf\.registers\[25\]\[13\]
*1839 rf\.registers\[25\]\[14\]
*1840 rf\.registers\[25\]\[15\]
*1841 rf\.registers\[25\]\[16\]
*1842 rf\.registers\[25\]\[17\]
*1843 rf\.registers\[25\]\[18\]
*1844 rf\.registers\[25\]\[19\]
*1845 rf\.registers\[25\]\[1\]
*1846 rf\.registers\[25\]\[20\]
*1847 rf\.registers\[25\]\[21\]
*1848 rf\.registers\[25\]\[22\]
*1849 rf\.registers\[25\]\[23\]
*1850 rf\.registers\[25\]\[24\]
*1851 rf\.registers\[25\]\[25\]
*1852 rf\.registers\[25\]\[26\]
*1853 rf\.registers\[25\]\[27\]
*1854 rf\.registers\[25\]\[28\]
*1855 rf\.registers\[25\]\[29\]
*1856 rf\.registers\[25\]\[2\]
*1857 rf\.registers\[25\]\[30\]
*1858 rf\.registers\[25\]\[31\]
*1859 rf\.registers\[25\]\[3\]
*1860 rf\.registers\[25\]\[4\]
*1861 rf\.registers\[25\]\[5\]
*1862 rf\.registers\[25\]\[6\]
*1863 rf\.registers\[25\]\[7\]
*1864 rf\.registers\[25\]\[8\]
*1865 rf\.registers\[25\]\[9\]
*1866 rf\.registers\[5\]\[0\]
*1867 rf\.registers\[5\]\[10\]
*1868 rf\.registers\[5\]\[11\]
*1869 rf\.registers\[5\]\[12\]
*1870 rf\.registers\[5\]\[13\]
*1871 rf\.registers\[5\]\[14\]
*1872 rf\.registers\[5\]\[15\]
*1873 rf\.registers\[5\]\[16\]
*1874 rf\.registers\[5\]\[17\]
*1875 rf\.registers\[5\]\[18\]
*1876 rf\.registers\[5\]\[19\]
*1877 rf\.registers\[5\]\[1\]
*1878 rf\.registers\[5\]\[20\]
*1879 rf\.registers\[5\]\[21\]
*1880 rf\.registers\[5\]\[22\]
*1881 rf\.registers\[5\]\[23\]
*1882 rf\.registers\[5\]\[24\]
*1883 rf\.registers\[5\]\[25\]
*1884 rf\.registers\[5\]\[26\]
*1885 rf\.registers\[5\]\[27\]
*1886 rf\.registers\[5\]\[28\]
*1887 rf\.registers\[5\]\[29\]
*1888 rf\.registers\[5\]\[2\]
*1889 rf\.registers\[5\]\[30\]
*1890 rf\.registers\[5\]\[31\]
*1891 rf\.registers\[5\]\[3\]
*1892 rf\.registers\[5\]\[4\]
*1893 rf\.registers\[5\]\[5\]
*1894 rf\.registers\[5\]\[6\]
*1895 rf\.registers\[5\]\[7\]
*1896 rf\.registers\[5\]\[8\]
*1897 rf\.registers\[5\]\[9\]
*1898 ssdc\.clk_divider\[0\]
*1899 ssdc\.clk_divider\[10\]
*1900 ssdc\.clk_divider\[11\]
*1901 ssdc\.clk_divider\[12\]
*1902 ssdc\.clk_divider\[13\]
*1903 ssdc\.clk_divider\[14\]
*1904 ssdc\.clk_divider\[15\]
*1905 ssdc\.clk_divider\[16\]
*1906 ssdc\.clk_divider\[17\]
*1907 ssdc\.clk_divider\[18\]
*1908 ssdc\.clk_divider\[19\]
*1909 ssdc\.clk_divider\[1\]
*1910 ssdc\.clk_divider\[2\]
*1911 ssdc\.clk_divider\[3\]
*1912 ssdc\.clk_divider\[4\]
*1913 ssdc\.clk_divider\[5\]
*1914 ssdc\.clk_divider\[6\]
*1915 ssdc\.clk_divider\[7\]
*1916 ssdc\.clk_divider\[8\]
*1917 ssdc\.clk_divider\[9\]
*1918 ssdc\.digit_select\[0\]
*1919 ssdc\.digit_select\[1\]
*1920 ANTENNA__1276__A
*1921 ANTENNA__1276__B
*1922 ANTENNA__1278__A_N
*1923 ANTENNA__1278__B
*1924 ANTENNA__1281__A
*1925 ANTENNA__1302__A
*1926 ANTENNA__1323__A
*1927 ANTENNA__1345__B
*1928 ANTENNA__1347__A
*1929 ANTENNA__1347__B
*1930 ANTENNA__1350__A
*1931 ANTENNA__1351__A
*1932 ANTENNA__1355__B1
*1933 ANTENNA__1356__A
*1934 ANTENNA__1356__B
*1935 ANTENNA__1360__A
*1936 ANTENNA__1361__A_N
*1937 ANTENNA__1361__B
*1938 ANTENNA__1365__A
*1939 ANTENNA__1386__A
*1940 ANTENNA__1387__B
*1941 ANTENNA__1389__B
*1942 ANTENNA__1391__B
*1943 ANTENNA__1393__B
*1944 ANTENNA__1395__B
*1945 ANTENNA__1397__B
*1946 ANTENNA__1399__B
*1947 ANTENNA__1401__B
*1948 ANTENNA__1403__B
*1949 ANTENNA__1405__B
*1950 ANTENNA__1407__A
*1951 ANTENNA__1431__A
*1952 ANTENNA__1452__A
*1953 ANTENNA__1473__B
*1954 ANTENNA__1475__B
*1955 ANTENNA__1477__B
*1956 ANTENNA__1479__B
*1957 ANTENNA__1481__B
*1958 ANTENNA__1483__B
*1959 ANTENNA__1485__B
*1960 ANTENNA__1487__B
*1961 ANTENNA__1500__A
*1962 ANTENNA__1501__B_N
*1963 ANTENNA__1501__C
*1964 ANTENNA__1505__A
*1965 ANTENNA__1506__A
*1966 ANTENNA__1507__A
*1967 ANTENNA__1508__A
*1968 ANTENNA__1510__A2
*1969 ANTENNA__1510__B1
*1970 ANTENNA__1511__A
*1971 ANTENNA__1512__B
*1972 ANTENNA__1512__C
*1973 ANTENNA__1516__A2
*1974 ANTENNA__1519__A2
*1975 ANTENNA__1519__B1
*1976 ANTENNA__1520__A2
*1977 ANTENNA__1522__A2
*1978 ANTENNA__1522__B1
*1979 ANTENNA__1524__A2
*1980 ANTENNA__1526__A2
*1981 ANTENNA__1526__B1
*1982 ANTENNA__1528__A2
*1983 ANTENNA__1528__B1
*1984 ANTENNA__1530__A2
*1985 ANTENNA__1530__B1
*1986 ANTENNA__1532__A2
*1987 ANTENNA__1534__A2
*1988 ANTENNA__1536__A2
*1989 ANTENNA__1546__A2
*1990 ANTENNA__1550__A2
*1991 ANTENNA__1552__A2
*1992 ANTENNA__1560__A2
*1993 ANTENNA__1584__A
*1994 ANTENNA__1585__A
*1995 ANTENNA__1587__A
*1996 ANTENNA__1587__B
*1997 ANTENNA__1591__B
*1998 ANTENNA__1597__B1
*1999 ANTENNA__1601__A2
*2000 ANTENNA__1602__A
*2001 ANTENNA__1603__A
*2002 ANTENNA__1604__B1
*2003 ANTENNA__1613__A2
*2004 ANTENNA__1613__B1
*2005 ANTENNA__1615__B1
*2006 ANTENNA__1616__B1
*2007 ANTENNA__1618__A
*2008 ANTENNA__1621__B1
*2009 ANTENNA__1626__B1
*2010 ANTENNA__1628__B1
*2011 ANTENNA__1629__B1
*2012 ANTENNA__1632__B1
*2013 ANTENNA__1634__A
*2014 ANTENNA__1635__B1
*2015 ANTENNA__1637__A
*2016 ANTENNA__1639__A3
*2017 ANTENNA__1641__A
*2018 ANTENNA__1644__B1
*2019 ANTENNA__1647__C
*2020 ANTENNA__1650__B1